                                  USG-TRANSPORT USG-TRANSPORT 
       FURTHER  DEVELOPMENTS BASED ON MODFLOW-USG
                      VERSION USG-TRANSPORT VERSION 2.02.0

 LIST FILE: vsf.lst
                         UNIT    7

 OPENING vsf.bas
 FILE TYPE:BAS6   UNIT    1   STATUS:OLD    
 FORMAT:FORMATTED              ACCESS:SEQUENTIAL          

 OPENING vsf.sms
 FILE TYPE:SMS   UNIT   19   STATUS:OLD    
 FORMAT:FORMATTED              ACCESS:SEQUENTIAL          

 OPENING vsf.dis
 FILE TYPE:DISU   UNIT   29   STATUS:OLD    
 FORMAT:FORMATTED              ACCESS:SEQUENTIAL          

 OPENING vsf.oc
 FILE TYPE:OC   UNIT   22   STATUS:OLD    
 FORMAT:FORMATTED              ACCESS:SEQUENTIAL          

 OPENING vsf.rch
 FILE TYPE:RCH   UNIT   18   STATUS:OLD    
 FORMAT:FORMATTED              ACCESS:SEQUENTIAL          

 OPENING vsf.chd
 FILE TYPE:CHD   UNIT  199   STATUS:OLD    
 FORMAT:FORMATTED              ACCESS:SEQUENTIAL          

 OPENING vsf.lpf
 FILE TYPE:LPF   UNIT   11   STATUS:OLD    
 FORMAT:FORMATTED              ACCESS:SEQUENTIAL          

 OPENING vsf_FlowReduction.dat
 FILE TYPE:DATA   UNIT  166   STATUS:UNKNOWN
 FORMAT:FORMATTED              ACCESS:SEQUENTIAL          

 OPENING vsf.cbb
 FILE TYPE:DATA(BINARY)   UNIT   50   STATUS:UNKNOWN
 FORMAT:UNFORMATTED            ACCESS:STREAM              

 OPENING vsf.hds
 FILE TYPE:DATA(BINARY)   UNIT   30   STATUS:UNKNOWN
 FORMAT:UNFORMATTED            ACCESS:STREAM              

 OPENING vsf.ddn
 FILE TYPE:DATA(BINARY)   UNIT   31   STATUS:UNKNOWN
 FORMAT:UNFORMATTED            ACCESS:STREAM              

 BAS -- BASIC PACKAGEUSG-TRANSPORT USG-TRANSPORT VERSION 2.02.0             INPUT READ FROM UNIT    1
 
 # MODFLOW-USGs Basic Package                                                    
 # MODFLOW Data Set Created by Groundwater Vistas                                
 #
 THE FREE FORMAT OPTION HAS BEEN SELECTED
 RICHARDS EQUATION SOLUTION
 THE UNSTRUCTURED GRID OPTION HAS BEEN SELECTED

 DIS -- UNSTRUCTURED GRID DISCRETIZATION PACKAGE, VERSION 1 : 5/17/2010 - INPUT READ FROM UNIT   29
        101 NODES       101 NLAY       301 NJAG  VERT. SUBDISCRETIZATION INDEX, IVSD = -1
 INDEX FOR INPUT OF UNSTRUCTURED, FINITE-VOLUME CONNECTIVITY INFORMATION, IDSYMRD =   0
    1 STRESS PERIOD(S) IN SIMULATION
 MODEL TIME UNIT IS DAYS
 MODEL LENGTH UNIT IS UNDEFINED
  Confining bed flag for each layer:
   0   0   0   0   0   0   0   0   0   0   0   0   0   0   0   0   0   0   0   0
   0   0   0   0   0   0   0   0   0   0   0   0   0   0   0   0   0   0   0   0
   0   0   0   0   0   0   0   0   0   0   0   0   0   0   0   0   0   0   0   0
   0   0   0   0   0   0   0   0   0   0   0   0   0   0   0   0   0   0   0   0
   0   0   0   0   0   0   0   0   0   0   0   0   0   0   0   0   0   0   0   0
   0

 DIS -- UNSTRUCTURED GRID DISCRETIZATION PACKAGE, VERSION 1 : 5/17/2010 - INPUT READ FROM UNIT   29

   NO. OF NODES PER LAYER =         1



                                TOP FOR LAYER   1
 READING ON UNIT   29 WITH FORMAT: (FREE)              



                                TOP FOR LAYER   2
 READING ON UNIT   29 WITH FORMAT: (FREE)              



                                TOP FOR LAYER   3
 READING ON UNIT   29 WITH FORMAT: (FREE)              



                                TOP FOR LAYER   4
 READING ON UNIT   29 WITH FORMAT: (FREE)              



                                TOP FOR LAYER   5
 READING ON UNIT   29 WITH FORMAT: (FREE)              



                                TOP FOR LAYER   6
 READING ON UNIT   29 WITH FORMAT: (FREE)              



                                TOP FOR LAYER   7
 READING ON UNIT   29 WITH FORMAT: (FREE)              



                                TOP FOR LAYER   8
 READING ON UNIT   29 WITH FORMAT: (FREE)              



                                TOP FOR LAYER   9
 READING ON UNIT   29 WITH FORMAT: (FREE)              



                                TOP FOR LAYER  10
 READING ON UNIT   29 WITH FORMAT: (FREE)              



                                TOP FOR LAYER  11
 READING ON UNIT   29 WITH FORMAT: (FREE)              



                                TOP FOR LAYER  12
 READING ON UNIT   29 WITH FORMAT: (FREE)              



                                TOP FOR LAYER  13
 READING ON UNIT   29 WITH FORMAT: (FREE)              



                                TOP FOR LAYER  14
 READING ON UNIT   29 WITH FORMAT: (FREE)              



                                TOP FOR LAYER  15
 READING ON UNIT   29 WITH FORMAT: (FREE)              



                                TOP FOR LAYER  16
 READING ON UNIT   29 WITH FORMAT: (FREE)              



                                TOP FOR LAYER  17
 READING ON UNIT   29 WITH FORMAT: (FREE)              



                                TOP FOR LAYER  18
 READING ON UNIT   29 WITH FORMAT: (FREE)              



                                TOP FOR LAYER  19
 READING ON UNIT   29 WITH FORMAT: (FREE)              



                                TOP FOR LAYER  20
 READING ON UNIT   29 WITH FORMAT: (FREE)              



                                TOP FOR LAYER  21
 READING ON UNIT   29 WITH FORMAT: (FREE)              



                                TOP FOR LAYER  22
 READING ON UNIT   29 WITH FORMAT: (FREE)              



                                TOP FOR LAYER  23
 READING ON UNIT   29 WITH FORMAT: (FREE)              



                                TOP FOR LAYER  24
 READING ON UNIT   29 WITH FORMAT: (FREE)              



                                TOP FOR LAYER  25
 READING ON UNIT   29 WITH FORMAT: (FREE)              



                                TOP FOR LAYER  26
 READING ON UNIT   29 WITH FORMAT: (FREE)              



                                TOP FOR LAYER  27
 READING ON UNIT   29 WITH FORMAT: (FREE)              



                                TOP FOR LAYER  28
 READING ON UNIT   29 WITH FORMAT: (FREE)              



                                TOP FOR LAYER  29
 READING ON UNIT   29 WITH FORMAT: (FREE)              



                                TOP FOR LAYER  30
 READING ON UNIT   29 WITH FORMAT: (FREE)              



                                TOP FOR LAYER  31
 READING ON UNIT   29 WITH FORMAT: (FREE)              



                                TOP FOR LAYER  32
 READING ON UNIT   29 WITH FORMAT: (FREE)              



                                TOP FOR LAYER  33
 READING ON UNIT   29 WITH FORMAT: (FREE)              



                                TOP FOR LAYER  34
 READING ON UNIT   29 WITH FORMAT: (FREE)              



                                TOP FOR LAYER  35
 READING ON UNIT   29 WITH FORMAT: (FREE)              



                                TOP FOR LAYER  36
 READING ON UNIT   29 WITH FORMAT: (FREE)              



                                TOP FOR LAYER  37
 READING ON UNIT   29 WITH FORMAT: (FREE)              



                                TOP FOR LAYER  38
 READING ON UNIT   29 WITH FORMAT: (FREE)              



                                TOP FOR LAYER  39
 READING ON UNIT   29 WITH FORMAT: (FREE)              



                                TOP FOR LAYER  40
 READING ON UNIT   29 WITH FORMAT: (FREE)              



                                TOP FOR LAYER  41
 READING ON UNIT   29 WITH FORMAT: (FREE)              



                                TOP FOR LAYER  42
 READING ON UNIT   29 WITH FORMAT: (FREE)              



                                TOP FOR LAYER  43
 READING ON UNIT   29 WITH FORMAT: (FREE)              



                                TOP FOR LAYER  44
 READING ON UNIT   29 WITH FORMAT: (FREE)              



                                TOP FOR LAYER  45
 READING ON UNIT   29 WITH FORMAT: (FREE)              



                                TOP FOR LAYER  46
 READING ON UNIT   29 WITH FORMAT: (FREE)              



                                TOP FOR LAYER  47
 READING ON UNIT   29 WITH FORMAT: (FREE)              



                                TOP FOR LAYER  48
 READING ON UNIT   29 WITH FORMAT: (FREE)              



                                TOP FOR LAYER  49
 READING ON UNIT   29 WITH FORMAT: (FREE)              



                                TOP FOR LAYER  50
 READING ON UNIT   29 WITH FORMAT: (FREE)              



                                TOP FOR LAYER  51
 READING ON UNIT   29 WITH FORMAT: (FREE)              



                                TOP FOR LAYER  52
 READING ON UNIT   29 WITH FORMAT: (FREE)              



                                TOP FOR LAYER  53
 READING ON UNIT   29 WITH FORMAT: (FREE)              



                                TOP FOR LAYER  54
 READING ON UNIT   29 WITH FORMAT: (FREE)              



                                TOP FOR LAYER  55
 READING ON UNIT   29 WITH FORMAT: (FREE)              



                                TOP FOR LAYER  56
 READING ON UNIT   29 WITH FORMAT: (FREE)              



                                TOP FOR LAYER  57
 READING ON UNIT   29 WITH FORMAT: (FREE)              



                                TOP FOR LAYER  58
 READING ON UNIT   29 WITH FORMAT: (FREE)              



                                TOP FOR LAYER  59
 READING ON UNIT   29 WITH FORMAT: (FREE)              



                                TOP FOR LAYER  60
 READING ON UNIT   29 WITH FORMAT: (FREE)              



                                TOP FOR LAYER  61
 READING ON UNIT   29 WITH FORMAT: (FREE)              



                                TOP FOR LAYER  62
 READING ON UNIT   29 WITH FORMAT: (FREE)              



                                TOP FOR LAYER  63
 READING ON UNIT   29 WITH FORMAT: (FREE)              



                                TOP FOR LAYER  64
 READING ON UNIT   29 WITH FORMAT: (FREE)              



                                TOP FOR LAYER  65
 READING ON UNIT   29 WITH FORMAT: (FREE)              



                                TOP FOR LAYER  66
 READING ON UNIT   29 WITH FORMAT: (FREE)              



                                TOP FOR LAYER  67
 READING ON UNIT   29 WITH FORMAT: (FREE)              



                                TOP FOR LAYER  68
 READING ON UNIT   29 WITH FORMAT: (FREE)              



                                TOP FOR LAYER  69
 READING ON UNIT   29 WITH FORMAT: (FREE)              



                                TOP FOR LAYER  70
 READING ON UNIT   29 WITH FORMAT: (FREE)              



                                TOP FOR LAYER  71
 READING ON UNIT   29 WITH FORMAT: (FREE)              



                                TOP FOR LAYER  72
 READING ON UNIT   29 WITH FORMAT: (FREE)              



                                TOP FOR LAYER  73
 READING ON UNIT   29 WITH FORMAT: (FREE)              



                                TOP FOR LAYER  74
 READING ON UNIT   29 WITH FORMAT: (FREE)              



                                TOP FOR LAYER  75
 READING ON UNIT   29 WITH FORMAT: (FREE)              



                                TOP FOR LAYER  76
 READING ON UNIT   29 WITH FORMAT: (FREE)              



                                TOP FOR LAYER  77
 READING ON UNIT   29 WITH FORMAT: (FREE)              



                                TOP FOR LAYER  78
 READING ON UNIT   29 WITH FORMAT: (FREE)              



                                TOP FOR LAYER  79
 READING ON UNIT   29 WITH FORMAT: (FREE)              



                                TOP FOR LAYER  80
 READING ON UNIT   29 WITH FORMAT: (FREE)              



                                TOP FOR LAYER  81
 READING ON UNIT   29 WITH FORMAT: (FREE)              



                                TOP FOR LAYER  82
 READING ON UNIT   29 WITH FORMAT: (FREE)              



                                TOP FOR LAYER  83
 READING ON UNIT   29 WITH FORMAT: (FREE)              



                                TOP FOR LAYER  84
 READING ON UNIT   29 WITH FORMAT: (FREE)              



                                TOP FOR LAYER  85
 READING ON UNIT   29 WITH FORMAT: (FREE)              



                                TOP FOR LAYER  86
 READING ON UNIT   29 WITH FORMAT: (FREE)              



                                TOP FOR LAYER  87
 READING ON UNIT   29 WITH FORMAT: (FREE)              



                                TOP FOR LAYER  88
 READING ON UNIT   29 WITH FORMAT: (FREE)              



                                TOP FOR LAYER  89
 READING ON UNIT   29 WITH FORMAT: (FREE)              



                                TOP FOR LAYER  90
 READING ON UNIT   29 WITH FORMAT: (FREE)              



                                TOP FOR LAYER  91
 READING ON UNIT   29 WITH FORMAT: (FREE)              



                                TOP FOR LAYER  92
 READING ON UNIT   29 WITH FORMAT: (FREE)              



                                TOP FOR LAYER  93
 READING ON UNIT   29 WITH FORMAT: (FREE)              



                                TOP FOR LAYER  94
 READING ON UNIT   29 WITH FORMAT: (FREE)              



                                TOP FOR LAYER  95
 READING ON UNIT   29 WITH FORMAT: (FREE)              



                                TOP FOR LAYER  96
 READING ON UNIT   29 WITH FORMAT: (FREE)              



                                TOP FOR LAYER  97
 READING ON UNIT   29 WITH FORMAT: (FREE)              



                                TOP FOR LAYER  98
 READING ON UNIT   29 WITH FORMAT: (FREE)              



                                TOP FOR LAYER  99
 READING ON UNIT   29 WITH FORMAT: (FREE)              



                                TOP FOR LAYER 100
 READING ON UNIT   29 WITH FORMAT: (FREE)              



                                TOP FOR LAYER 101
 READING ON UNIT   29 WITH FORMAT: (FREE)              



                                BOT FOR LAYER   1
 READING ON UNIT   29 WITH FORMAT: (FREE)              



                                BOT FOR LAYER   2
 READING ON UNIT   29 WITH FORMAT: (FREE)              



                                BOT FOR LAYER   3
 READING ON UNIT   29 WITH FORMAT: (FREE)              



                                BOT FOR LAYER   4
 READING ON UNIT   29 WITH FORMAT: (FREE)              



                                BOT FOR LAYER   5
 READING ON UNIT   29 WITH FORMAT: (FREE)              



                                BOT FOR LAYER   6
 READING ON UNIT   29 WITH FORMAT: (FREE)              



                                BOT FOR LAYER   7
 READING ON UNIT   29 WITH FORMAT: (FREE)              



                                BOT FOR LAYER   8
 READING ON UNIT   29 WITH FORMAT: (FREE)              



                                BOT FOR LAYER   9
 READING ON UNIT   29 WITH FORMAT: (FREE)              



                                BOT FOR LAYER  10
 READING ON UNIT   29 WITH FORMAT: (FREE)              



                                BOT FOR LAYER  11
 READING ON UNIT   29 WITH FORMAT: (FREE)              



                                BOT FOR LAYER  12
 READING ON UNIT   29 WITH FORMAT: (FREE)              



                                BOT FOR LAYER  13
 READING ON UNIT   29 WITH FORMAT: (FREE)              



                                BOT FOR LAYER  14
 READING ON UNIT   29 WITH FORMAT: (FREE)              



                                BOT FOR LAYER  15
 READING ON UNIT   29 WITH FORMAT: (FREE)              



                                BOT FOR LAYER  16
 READING ON UNIT   29 WITH FORMAT: (FREE)              



                                BOT FOR LAYER  17
 READING ON UNIT   29 WITH FORMAT: (FREE)              



                                BOT FOR LAYER  18
 READING ON UNIT   29 WITH FORMAT: (FREE)              



                                BOT FOR LAYER  19
 READING ON UNIT   29 WITH FORMAT: (FREE)              



                                BOT FOR LAYER  20
 READING ON UNIT   29 WITH FORMAT: (FREE)              



                                BOT FOR LAYER  21
 READING ON UNIT   29 WITH FORMAT: (FREE)              



                                BOT FOR LAYER  22
 READING ON UNIT   29 WITH FORMAT: (FREE)              



                                BOT FOR LAYER  23
 READING ON UNIT   29 WITH FORMAT: (FREE)              



                                BOT FOR LAYER  24
 READING ON UNIT   29 WITH FORMAT: (FREE)              



                                BOT FOR LAYER  25
 READING ON UNIT   29 WITH FORMAT: (FREE)              



                                BOT FOR LAYER  26
 READING ON UNIT   29 WITH FORMAT: (FREE)              



                                BOT FOR LAYER  27
 READING ON UNIT   29 WITH FORMAT: (FREE)              



                                BOT FOR LAYER  28
 READING ON UNIT   29 WITH FORMAT: (FREE)              



                                BOT FOR LAYER  29
 READING ON UNIT   29 WITH FORMAT: (FREE)              



                                BOT FOR LAYER  30
 READING ON UNIT   29 WITH FORMAT: (FREE)              



                                BOT FOR LAYER  31
 READING ON UNIT   29 WITH FORMAT: (FREE)              



                                BOT FOR LAYER  32
 READING ON UNIT   29 WITH FORMAT: (FREE)              



                                BOT FOR LAYER  33
 READING ON UNIT   29 WITH FORMAT: (FREE)              



                                BOT FOR LAYER  34
 READING ON UNIT   29 WITH FORMAT: (FREE)              



                                BOT FOR LAYER  35
 READING ON UNIT   29 WITH FORMAT: (FREE)              



                                BOT FOR LAYER  36
 READING ON UNIT   29 WITH FORMAT: (FREE)              



                                BOT FOR LAYER  37
 READING ON UNIT   29 WITH FORMAT: (FREE)              



                                BOT FOR LAYER  38
 READING ON UNIT   29 WITH FORMAT: (FREE)              



                                BOT FOR LAYER  39
 READING ON UNIT   29 WITH FORMAT: (FREE)              



                                BOT FOR LAYER  40
 READING ON UNIT   29 WITH FORMAT: (FREE)              



                                BOT FOR LAYER  41
 READING ON UNIT   29 WITH FORMAT: (FREE)              



                                BOT FOR LAYER  42
 READING ON UNIT   29 WITH FORMAT: (FREE)              



                                BOT FOR LAYER  43
 READING ON UNIT   29 WITH FORMAT: (FREE)              



                                BOT FOR LAYER  44
 READING ON UNIT   29 WITH FORMAT: (FREE)              



                                BOT FOR LAYER  45
 READING ON UNIT   29 WITH FORMAT: (FREE)              



                                BOT FOR LAYER  46
 READING ON UNIT   29 WITH FORMAT: (FREE)              



                                BOT FOR LAYER  47
 READING ON UNIT   29 WITH FORMAT: (FREE)              



                                BOT FOR LAYER  48
 READING ON UNIT   29 WITH FORMAT: (FREE)              



                                BOT FOR LAYER  49
 READING ON UNIT   29 WITH FORMAT: (FREE)              



                                BOT FOR LAYER  50
 READING ON UNIT   29 WITH FORMAT: (FREE)              



                                BOT FOR LAYER  51
 READING ON UNIT   29 WITH FORMAT: (FREE)              



                                BOT FOR LAYER  52
 READING ON UNIT   29 WITH FORMAT: (FREE)              



                                BOT FOR LAYER  53
 READING ON UNIT   29 WITH FORMAT: (FREE)              



                                BOT FOR LAYER  54
 READING ON UNIT   29 WITH FORMAT: (FREE)              



                                BOT FOR LAYER  55
 READING ON UNIT   29 WITH FORMAT: (FREE)              



                                BOT FOR LAYER  56
 READING ON UNIT   29 WITH FORMAT: (FREE)              



                                BOT FOR LAYER  57
 READING ON UNIT   29 WITH FORMAT: (FREE)              



                                BOT FOR LAYER  58
 READING ON UNIT   29 WITH FORMAT: (FREE)              



                                BOT FOR LAYER  59
 READING ON UNIT   29 WITH FORMAT: (FREE)              



                                BOT FOR LAYER  60
 READING ON UNIT   29 WITH FORMAT: (FREE)              



                                BOT FOR LAYER  61
 READING ON UNIT   29 WITH FORMAT: (FREE)              



                                BOT FOR LAYER  62
 READING ON UNIT   29 WITH FORMAT: (FREE)              



                                BOT FOR LAYER  63
 READING ON UNIT   29 WITH FORMAT: (FREE)              



                                BOT FOR LAYER  64
 READING ON UNIT   29 WITH FORMAT: (FREE)              



                                BOT FOR LAYER  65
 READING ON UNIT   29 WITH FORMAT: (FREE)              



                                BOT FOR LAYER  66
 READING ON UNIT   29 WITH FORMAT: (FREE)              



                                BOT FOR LAYER  67
 READING ON UNIT   29 WITH FORMAT: (FREE)              



                                BOT FOR LAYER  68
 READING ON UNIT   29 WITH FORMAT: (FREE)              



                                BOT FOR LAYER  69
 READING ON UNIT   29 WITH FORMAT: (FREE)              



                                BOT FOR LAYER  70
 READING ON UNIT   29 WITH FORMAT: (FREE)              



                                BOT FOR LAYER  71
 READING ON UNIT   29 WITH FORMAT: (FREE)              



                                BOT FOR LAYER  72
 READING ON UNIT   29 WITH FORMAT: (FREE)              



                                BOT FOR LAYER  73
 READING ON UNIT   29 WITH FORMAT: (FREE)              



                                BOT FOR LAYER  74
 READING ON UNIT   29 WITH FORMAT: (FREE)              



                                BOT FOR LAYER  75
 READING ON UNIT   29 WITH FORMAT: (FREE)              



                                BOT FOR LAYER  76
 READING ON UNIT   29 WITH FORMAT: (FREE)              



                                BOT FOR LAYER  77
 READING ON UNIT   29 WITH FORMAT: (FREE)              



                                BOT FOR LAYER  78
 READING ON UNIT   29 WITH FORMAT: (FREE)              



                                BOT FOR LAYER  79
 READING ON UNIT   29 WITH FORMAT: (FREE)              



                                BOT FOR LAYER  80
 READING ON UNIT   29 WITH FORMAT: (FREE)              



                                BOT FOR LAYER  81
 READING ON UNIT   29 WITH FORMAT: (FREE)              



                                BOT FOR LAYER  82
 READING ON UNIT   29 WITH FORMAT: (FREE)              



                                BOT FOR LAYER  83
 READING ON UNIT   29 WITH FORMAT: (FREE)              



                                BOT FOR LAYER  84
 READING ON UNIT   29 WITH FORMAT: (FREE)              



                                BOT FOR LAYER  85
 READING ON UNIT   29 WITH FORMAT: (FREE)              



                                BOT FOR LAYER  86
 READING ON UNIT   29 WITH FORMAT: (FREE)              



                                BOT FOR LAYER  87
 READING ON UNIT   29 WITH FORMAT: (FREE)              



                                BOT FOR LAYER  88
 READING ON UNIT   29 WITH FORMAT: (FREE)              



                                BOT FOR LAYER  89
 READING ON UNIT   29 WITH FORMAT: (FREE)              



                                BOT FOR LAYER  90
 READING ON UNIT   29 WITH FORMAT: (FREE)              



                                BOT FOR LAYER  91
 READING ON UNIT   29 WITH FORMAT: (FREE)              



                                BOT FOR LAYER  92
 READING ON UNIT   29 WITH FORMAT: (FREE)              



                                BOT FOR LAYER  93
 READING ON UNIT   29 WITH FORMAT: (FREE)              



                                BOT FOR LAYER  94
 READING ON UNIT   29 WITH FORMAT: (FREE)              



                                BOT FOR LAYER  95
 READING ON UNIT   29 WITH FORMAT: (FREE)              



                                BOT FOR LAYER  96
 READING ON UNIT   29 WITH FORMAT: (FREE)              



                                BOT FOR LAYER  97
 READING ON UNIT   29 WITH FORMAT: (FREE)              



                                BOT FOR LAYER  98
 READING ON UNIT   29 WITH FORMAT: (FREE)              



                                BOT FOR LAYER  99
 READING ON UNIT   29 WITH FORMAT: (FREE)              



                                BOT FOR LAYER 100
 READING ON UNIT   29 WITH FORMAT: (FREE)              



                                BOT FOR LAYER 101
 READING ON UNIT   29 WITH FORMAT: (FREE)              

                     AREA =   1.00000     FOR LAYER   1



                                 IA
 READING ON UNIT   29 WITH FORMAT: (FREE)              



                                 JA
 READING ON UNIT   29 WITH FORMAT: (FREE)              



               CONNECTION LENGTH 12 FOR LAYER   1
 READING ON UNIT   29 WITH FORMAT: (FREE)              



                 PERPENDICULAR AREA
 READING ON UNIT   29 WITH FORMAT: (FREE)              


 STRESS PERIOD     LENGTH       TIME STEPS     MULTIPLIER FOR DELT    SS FLAG
 ----------------------------------------------------------------------------
        1         200.0000          1                    1.100         TR

 TRANSIENT SIMULATION




           BOUNDARY ARRAY =         1 FOR LAYER   1

           BOUNDARY ARRAY =         1 FOR LAYER   2

           BOUNDARY ARRAY =         1 FOR LAYER   3

           BOUNDARY ARRAY =         1 FOR LAYER   4

           BOUNDARY ARRAY =         1 FOR LAYER   5

           BOUNDARY ARRAY =         1 FOR LAYER   6

           BOUNDARY ARRAY =         1 FOR LAYER   7

           BOUNDARY ARRAY =         1 FOR LAYER   8

           BOUNDARY ARRAY =         1 FOR LAYER   9

           BOUNDARY ARRAY =         1 FOR LAYER  10

           BOUNDARY ARRAY =         1 FOR LAYER  11

           BOUNDARY ARRAY =         1 FOR LAYER  12

           BOUNDARY ARRAY =         1 FOR LAYER  13

           BOUNDARY ARRAY =         1 FOR LAYER  14

           BOUNDARY ARRAY =         1 FOR LAYER  15

           BOUNDARY ARRAY =         1 FOR LAYER  16

           BOUNDARY ARRAY =         1 FOR LAYER  17

           BOUNDARY ARRAY =         1 FOR LAYER  18

           BOUNDARY ARRAY =         1 FOR LAYER  19

           BOUNDARY ARRAY =         1 FOR LAYER  20

           BOUNDARY ARRAY =         1 FOR LAYER  21

           BOUNDARY ARRAY =         1 FOR LAYER  22

           BOUNDARY ARRAY =         1 FOR LAYER  23

           BOUNDARY ARRAY =         1 FOR LAYER  24

           BOUNDARY ARRAY =         1 FOR LAYER  25

           BOUNDARY ARRAY =         1 FOR LAYER  26

           BOUNDARY ARRAY =         1 FOR LAYER  27

           BOUNDARY ARRAY =         1 FOR LAYER  28

           BOUNDARY ARRAY =         1 FOR LAYER  29

           BOUNDARY ARRAY =         1 FOR LAYER  30

           BOUNDARY ARRAY =         1 FOR LAYER  31

           BOUNDARY ARRAY =         1 FOR LAYER  32

           BOUNDARY ARRAY =         1 FOR LAYER  33

           BOUNDARY ARRAY =         1 FOR LAYER  34

           BOUNDARY ARRAY =         1 FOR LAYER  35

           BOUNDARY ARRAY =         1 FOR LAYER  36

           BOUNDARY ARRAY =         1 FOR LAYER  37

           BOUNDARY ARRAY =         1 FOR LAYER  38

           BOUNDARY ARRAY =         1 FOR LAYER  39

           BOUNDARY ARRAY =         1 FOR LAYER  40

           BOUNDARY ARRAY =         1 FOR LAYER  41

           BOUNDARY ARRAY =         1 FOR LAYER  42

           BOUNDARY ARRAY =         1 FOR LAYER  43

           BOUNDARY ARRAY =         1 FOR LAYER  44

           BOUNDARY ARRAY =         1 FOR LAYER  45

           BOUNDARY ARRAY =         1 FOR LAYER  46

           BOUNDARY ARRAY =         1 FOR LAYER  47

           BOUNDARY ARRAY =         1 FOR LAYER  48

           BOUNDARY ARRAY =         1 FOR LAYER  49

           BOUNDARY ARRAY =         1 FOR LAYER  50

           BOUNDARY ARRAY =         1 FOR LAYER  51

           BOUNDARY ARRAY =         1 FOR LAYER  52

           BOUNDARY ARRAY =         1 FOR LAYER  53

           BOUNDARY ARRAY =         1 FOR LAYER  54

           BOUNDARY ARRAY =         1 FOR LAYER  55

           BOUNDARY ARRAY =         1 FOR LAYER  56

           BOUNDARY ARRAY =         1 FOR LAYER  57

           BOUNDARY ARRAY =         1 FOR LAYER  58

           BOUNDARY ARRAY =         1 FOR LAYER  59

           BOUNDARY ARRAY =         1 FOR LAYER  60

           BOUNDARY ARRAY =         1 FOR LAYER  61

           BOUNDARY ARRAY =         1 FOR LAYER  62

           BOUNDARY ARRAY =         1 FOR LAYER  63

           BOUNDARY ARRAY =         1 FOR LAYER  64

           BOUNDARY ARRAY =         1 FOR LAYER  65

           BOUNDARY ARRAY =         1 FOR LAYER  66

           BOUNDARY ARRAY =         1 FOR LAYER  67

           BOUNDARY ARRAY =         1 FOR LAYER  68

           BOUNDARY ARRAY =         1 FOR LAYER  69

           BOUNDARY ARRAY =         1 FOR LAYER  70

           BOUNDARY ARRAY =         1 FOR LAYER  71

           BOUNDARY ARRAY =         1 FOR LAYER  72

           BOUNDARY ARRAY =         1 FOR LAYER  73

           BOUNDARY ARRAY =         1 FOR LAYER  74

           BOUNDARY ARRAY =         1 FOR LAYER  75

           BOUNDARY ARRAY =         1 FOR LAYER  76

           BOUNDARY ARRAY =         1 FOR LAYER  77

           BOUNDARY ARRAY =         1 FOR LAYER  78

           BOUNDARY ARRAY =         1 FOR LAYER  79

           BOUNDARY ARRAY =         1 FOR LAYER  80

           BOUNDARY ARRAY =         1 FOR LAYER  81

           BOUNDARY ARRAY =         1 FOR LAYER  82

           BOUNDARY ARRAY =         1 FOR LAYER  83

           BOUNDARY ARRAY =         1 FOR LAYER  84

           BOUNDARY ARRAY =         1 FOR LAYER  85

           BOUNDARY ARRAY =         1 FOR LAYER  86

           BOUNDARY ARRAY =         1 FOR LAYER  87

           BOUNDARY ARRAY =         1 FOR LAYER  88

           BOUNDARY ARRAY =         1 FOR LAYER  89

           BOUNDARY ARRAY =         1 FOR LAYER  90

           BOUNDARY ARRAY =         1 FOR LAYER  91

           BOUNDARY ARRAY =         1 FOR LAYER  92

           BOUNDARY ARRAY =         1 FOR LAYER  93

           BOUNDARY ARRAY =         1 FOR LAYER  94

           BOUNDARY ARRAY =         1 FOR LAYER  95

           BOUNDARY ARRAY =         1 FOR LAYER  96

           BOUNDARY ARRAY =         1 FOR LAYER  97

           BOUNDARY ARRAY =         1 FOR LAYER  98

           BOUNDARY ARRAY =         1 FOR LAYER  99

           BOUNDARY ARRAY =         1 FOR LAYER 100

           BOUNDARY ARRAY =         1 FOR LAYER 101

 AQUIFER HEAD WILL BE SET TO   999.00     AT ALL NO-FLOW NODES (IBOUND=0).



                       INITIAL HEAD FOR LAYER   1
 READING ON UNIT    1 WITH FORMAT: (FREE)              



                       INITIAL HEAD FOR LAYER   2
 READING ON UNIT    1 WITH FORMAT: (FREE)              



                       INITIAL HEAD FOR LAYER   3
 READING ON UNIT    1 WITH FORMAT: (FREE)              



                       INITIAL HEAD FOR LAYER   4
 READING ON UNIT    1 WITH FORMAT: (FREE)              



                       INITIAL HEAD FOR LAYER   5
 READING ON UNIT    1 WITH FORMAT: (FREE)              



                       INITIAL HEAD FOR LAYER   6
 READING ON UNIT    1 WITH FORMAT: (FREE)              



                       INITIAL HEAD FOR LAYER   7
 READING ON UNIT    1 WITH FORMAT: (FREE)              



                       INITIAL HEAD FOR LAYER   8
 READING ON UNIT    1 WITH FORMAT: (FREE)              



                       INITIAL HEAD FOR LAYER   9
 READING ON UNIT    1 WITH FORMAT: (FREE)              



                       INITIAL HEAD FOR LAYER  10
 READING ON UNIT    1 WITH FORMAT: (FREE)              



                       INITIAL HEAD FOR LAYER  11
 READING ON UNIT    1 WITH FORMAT: (FREE)              



                       INITIAL HEAD FOR LAYER  12
 READING ON UNIT    1 WITH FORMAT: (FREE)              



                       INITIAL HEAD FOR LAYER  13
 READING ON UNIT    1 WITH FORMAT: (FREE)              



                       INITIAL HEAD FOR LAYER  14
 READING ON UNIT    1 WITH FORMAT: (FREE)              



                       INITIAL HEAD FOR LAYER  15
 READING ON UNIT    1 WITH FORMAT: (FREE)              



                       INITIAL HEAD FOR LAYER  16
 READING ON UNIT    1 WITH FORMAT: (FREE)              



                       INITIAL HEAD FOR LAYER  17
 READING ON UNIT    1 WITH FORMAT: (FREE)              



                       INITIAL HEAD FOR LAYER  18
 READING ON UNIT    1 WITH FORMAT: (FREE)              



                       INITIAL HEAD FOR LAYER  19
 READING ON UNIT    1 WITH FORMAT: (FREE)              



                       INITIAL HEAD FOR LAYER  20
 READING ON UNIT    1 WITH FORMAT: (FREE)              



                       INITIAL HEAD FOR LAYER  21
 READING ON UNIT    1 WITH FORMAT: (FREE)              



                       INITIAL HEAD FOR LAYER  22
 READING ON UNIT    1 WITH FORMAT: (FREE)              



                       INITIAL HEAD FOR LAYER  23
 READING ON UNIT    1 WITH FORMAT: (FREE)              



                       INITIAL HEAD FOR LAYER  24
 READING ON UNIT    1 WITH FORMAT: (FREE)              



                       INITIAL HEAD FOR LAYER  25
 READING ON UNIT    1 WITH FORMAT: (FREE)              



                       INITIAL HEAD FOR LAYER  26
 READING ON UNIT    1 WITH FORMAT: (FREE)              



                       INITIAL HEAD FOR LAYER  27
 READING ON UNIT    1 WITH FORMAT: (FREE)              



                       INITIAL HEAD FOR LAYER  28
 READING ON UNIT    1 WITH FORMAT: (FREE)              



                       INITIAL HEAD FOR LAYER  29
 READING ON UNIT    1 WITH FORMAT: (FREE)              



                       INITIAL HEAD FOR LAYER  30
 READING ON UNIT    1 WITH FORMAT: (FREE)              



                       INITIAL HEAD FOR LAYER  31
 READING ON UNIT    1 WITH FORMAT: (FREE)              



                       INITIAL HEAD FOR LAYER  32
 READING ON UNIT    1 WITH FORMAT: (FREE)              



                       INITIAL HEAD FOR LAYER  33
 READING ON UNIT    1 WITH FORMAT: (FREE)              



                       INITIAL HEAD FOR LAYER  34
 READING ON UNIT    1 WITH FORMAT: (FREE)              



                       INITIAL HEAD FOR LAYER  35
 READING ON UNIT    1 WITH FORMAT: (FREE)              



                       INITIAL HEAD FOR LAYER  36
 READING ON UNIT    1 WITH FORMAT: (FREE)              



                       INITIAL HEAD FOR LAYER  37
 READING ON UNIT    1 WITH FORMAT: (FREE)              



                       INITIAL HEAD FOR LAYER  38
 READING ON UNIT    1 WITH FORMAT: (FREE)              



                       INITIAL HEAD FOR LAYER  39
 READING ON UNIT    1 WITH FORMAT: (FREE)              



                       INITIAL HEAD FOR LAYER  40
 READING ON UNIT    1 WITH FORMAT: (FREE)              



                       INITIAL HEAD FOR LAYER  41
 READING ON UNIT    1 WITH FORMAT: (FREE)              



                       INITIAL HEAD FOR LAYER  42
 READING ON UNIT    1 WITH FORMAT: (FREE)              



                       INITIAL HEAD FOR LAYER  43
 READING ON UNIT    1 WITH FORMAT: (FREE)              



                       INITIAL HEAD FOR LAYER  44
 READING ON UNIT    1 WITH FORMAT: (FREE)              



                       INITIAL HEAD FOR LAYER  45
 READING ON UNIT    1 WITH FORMAT: (FREE)              



                       INITIAL HEAD FOR LAYER  46
 READING ON UNIT    1 WITH FORMAT: (FREE)              



                       INITIAL HEAD FOR LAYER  47
 READING ON UNIT    1 WITH FORMAT: (FREE)              



                       INITIAL HEAD FOR LAYER  48
 READING ON UNIT    1 WITH FORMAT: (FREE)              



                       INITIAL HEAD FOR LAYER  49
 READING ON UNIT    1 WITH FORMAT: (FREE)              



                       INITIAL HEAD FOR LAYER  50
 READING ON UNIT    1 WITH FORMAT: (FREE)              



                       INITIAL HEAD FOR LAYER  51
 READING ON UNIT    1 WITH FORMAT: (FREE)              



                       INITIAL HEAD FOR LAYER  52
 READING ON UNIT    1 WITH FORMAT: (FREE)              



                       INITIAL HEAD FOR LAYER  53
 READING ON UNIT    1 WITH FORMAT: (FREE)              



                       INITIAL HEAD FOR LAYER  54
 READING ON UNIT    1 WITH FORMAT: (FREE)              



                       INITIAL HEAD FOR LAYER  55
 READING ON UNIT    1 WITH FORMAT: (FREE)              



                       INITIAL HEAD FOR LAYER  56
 READING ON UNIT    1 WITH FORMAT: (FREE)              



                       INITIAL HEAD FOR LAYER  57
 READING ON UNIT    1 WITH FORMAT: (FREE)              



                       INITIAL HEAD FOR LAYER  58
 READING ON UNIT    1 WITH FORMAT: (FREE)              



                       INITIAL HEAD FOR LAYER  59
 READING ON UNIT    1 WITH FORMAT: (FREE)              



                       INITIAL HEAD FOR LAYER  60
 READING ON UNIT    1 WITH FORMAT: (FREE)              



                       INITIAL HEAD FOR LAYER  61
 READING ON UNIT    1 WITH FORMAT: (FREE)              



                       INITIAL HEAD FOR LAYER  62
 READING ON UNIT    1 WITH FORMAT: (FREE)              



                       INITIAL HEAD FOR LAYER  63
 READING ON UNIT    1 WITH FORMAT: (FREE)              



                       INITIAL HEAD FOR LAYER  64
 READING ON UNIT    1 WITH FORMAT: (FREE)              



                       INITIAL HEAD FOR LAYER  65
 READING ON UNIT    1 WITH FORMAT: (FREE)              



                       INITIAL HEAD FOR LAYER  66
 READING ON UNIT    1 WITH FORMAT: (FREE)              



                       INITIAL HEAD FOR LAYER  67
 READING ON UNIT    1 WITH FORMAT: (FREE)              



                       INITIAL HEAD FOR LAYER  68
 READING ON UNIT    1 WITH FORMAT: (FREE)              



                       INITIAL HEAD FOR LAYER  69
 READING ON UNIT    1 WITH FORMAT: (FREE)              



                       INITIAL HEAD FOR LAYER  70
 READING ON UNIT    1 WITH FORMAT: (FREE)              



                       INITIAL HEAD FOR LAYER  71
 READING ON UNIT    1 WITH FORMAT: (FREE)              



                       INITIAL HEAD FOR LAYER  72
 READING ON UNIT    1 WITH FORMAT: (FREE)              



                       INITIAL HEAD FOR LAYER  73
 READING ON UNIT    1 WITH FORMAT: (FREE)              



                       INITIAL HEAD FOR LAYER  74
 READING ON UNIT    1 WITH FORMAT: (FREE)              



                       INITIAL HEAD FOR LAYER  75
 READING ON UNIT    1 WITH FORMAT: (FREE)              



                       INITIAL HEAD FOR LAYER  76
 READING ON UNIT    1 WITH FORMAT: (FREE)              



                       INITIAL HEAD FOR LAYER  77
 READING ON UNIT    1 WITH FORMAT: (FREE)              



                       INITIAL HEAD FOR LAYER  78
 READING ON UNIT    1 WITH FORMAT: (FREE)              



                       INITIAL HEAD FOR LAYER  79
 READING ON UNIT    1 WITH FORMAT: (FREE)              



                       INITIAL HEAD FOR LAYER  80
 READING ON UNIT    1 WITH FORMAT: (FREE)              



                       INITIAL HEAD FOR LAYER  81
 READING ON UNIT    1 WITH FORMAT: (FREE)              



                       INITIAL HEAD FOR LAYER  82
 READING ON UNIT    1 WITH FORMAT: (FREE)              



                       INITIAL HEAD FOR LAYER  83
 READING ON UNIT    1 WITH FORMAT: (FREE)              



                       INITIAL HEAD FOR LAYER  84
 READING ON UNIT    1 WITH FORMAT: (FREE)              



                       INITIAL HEAD FOR LAYER  85
 READING ON UNIT    1 WITH FORMAT: (FREE)              



                       INITIAL HEAD FOR LAYER  86
 READING ON UNIT    1 WITH FORMAT: (FREE)              



                       INITIAL HEAD FOR LAYER  87
 READING ON UNIT    1 WITH FORMAT: (FREE)              



                       INITIAL HEAD FOR LAYER  88
 READING ON UNIT    1 WITH FORMAT: (FREE)              



                       INITIAL HEAD FOR LAYER  89
 READING ON UNIT    1 WITH FORMAT: (FREE)              



                       INITIAL HEAD FOR LAYER  90
 READING ON UNIT    1 WITH FORMAT: (FREE)              



                       INITIAL HEAD FOR LAYER  91
 READING ON UNIT    1 WITH FORMAT: (FREE)              



                       INITIAL HEAD FOR LAYER  92
 READING ON UNIT    1 WITH FORMAT: (FREE)              



                       INITIAL HEAD FOR LAYER  93
 READING ON UNIT    1 WITH FORMAT: (FREE)              



                       INITIAL HEAD FOR LAYER  94
 READING ON UNIT    1 WITH FORMAT: (FREE)              



                       INITIAL HEAD FOR LAYER  95
 READING ON UNIT    1 WITH FORMAT: (FREE)              



                       INITIAL HEAD FOR LAYER  96
 READING ON UNIT    1 WITH FORMAT: (FREE)              



                       INITIAL HEAD FOR LAYER  97
 READING ON UNIT    1 WITH FORMAT: (FREE)              



                       INITIAL HEAD FOR LAYER  98
 READING ON UNIT    1 WITH FORMAT: (FREE)              



                       INITIAL HEAD FOR LAYER  99
 READING ON UNIT    1 WITH FORMAT: (FREE)              



                       INITIAL HEAD FOR LAYER 100
 READING ON UNIT    1 WITH FORMAT: (FREE)              



                       INITIAL HEAD FOR LAYER 101
 READING ON UNIT    1 WITH FORMAT: (FREE)              

 ADAPTIVE TIME STEPPING PERFORMED. ATS VARIABLES WILL BE READ.
 -------------------------------------------------------------

          OUTPUT WILL BE PRINTED AT FOLLOWING       3 TIMES
          --------------------------------------------------
   20.00000       40.00000       200.0000    

 OUTPUT CONTROL IS SPECIFIED ONLY AT TIME STEPS FOR WHICH OUTPUT IS DESIRED
 HEAD PRINT FORMAT CODE IS   0    DRAWDOWN PRINT FORMAT CODE IS   0
 HEADS WILL BE SAVED ON UNIT   30    DRAWDOWNS WILL BE SAVED ON UNIT   31

 LPF -- LAYER-PROPERTY FLOW PACKAGE, VERSION 7, 5/2/2005
         INPUT READ FROM UNIT   11
 # MODFLOW-USG Layer Property Flow (LPF) Package
 CELL-BY-CELL FLOWS WILL BE SAVED ON UNIT   50
 HEAD AT CELLS THAT CONVERT TO DRY= -1.00000E+30
 No named parameters
 IKCFLAG=0, NODAL INPUT OF HY AND CV
 CONSTANTCV OPTION:
 Constant vertical conductance for convertible layers
 NOVFC OPTION:
 Do not apply the vertical flow correction

   LAYER FLAGS:
 LAYER       LAYTYP        LAYAVG         CHANI        LAYVKA        LAYWET
 ---------------------------------------------------------------------------
    1             4             0     1.000E+00             0             0
    2             4             0     1.000E+00             0             0
    3             4             0     1.000E+00             0             0
    4             4             0     1.000E+00             0             0
    5             4             0     1.000E+00             0             0
    6             4             0     1.000E+00             0             0
    7             4             0     1.000E+00             0             0
    8             4             0     1.000E+00             0             0
    9             4             0     1.000E+00             0             0
   10             4             0     1.000E+00             0             0
   11             4             0     1.000E+00             0             0
   12             4             0     1.000E+00             0             0
   13             4             0     1.000E+00             0             0
   14             4             0     1.000E+00             0             0
   15             4             0     1.000E+00             0             0
   16             4             0     1.000E+00             0             0
   17             4             0     1.000E+00             0             0
   18             4             0     1.000E+00             0             0
   19             4             0     1.000E+00             0             0
   20             4             0     1.000E+00             0             0
   21             4             0     1.000E+00             0             0
   22             4             0     1.000E+00             0             0
   23             4             0     1.000E+00             0             0
   24             4             0     1.000E+00             0             0
   25             4             0     1.000E+00             0             0
   26             4             0     1.000E+00             0             0
   27             4             0     1.000E+00             0             0
   28             4             0     1.000E+00             0             0
   29             4             0     1.000E+00             0             0
   30             4             0     1.000E+00             0             0
   31             4             0     1.000E+00             0             0
   32             4             0     1.000E+00             0             0
   33             4             0     1.000E+00             0             0
   34             4             0     1.000E+00             0             0
   35             4             0     1.000E+00             0             0
   36             4             0     1.000E+00             0             0
   37             4             0     1.000E+00             0             0
   38             4             0     1.000E+00             0             0
   39             4             0     1.000E+00             0             0
   40             4             0     1.000E+00             0             0
   41             4             0     1.000E+00             0             0
   42             4             0     1.000E+00             0             0
   43             4             0     1.000E+00             0             0
   44             4             0     1.000E+00             0             0
   45             4             0     1.000E+00             0             0
   46             4             0     1.000E+00             0             0
   47             4             0     1.000E+00             0             0
   48             4             0     1.000E+00             0             0
   49             4             0     1.000E+00             0             0
   50             4             0     1.000E+00             0             0
   51             4             0     1.000E+00             0             0
   52             4             0     1.000E+00             0             0
   53             4             0     1.000E+00             0             0
   54             4             0     1.000E+00             0             0
   55             4             0     1.000E+00             0             0
   56             4             0     1.000E+00             0             0
   57             4             0     1.000E+00             0             0
   58             4             0     1.000E+00             0             0
   59             4             0     1.000E+00             0             0
   60             4             0     1.000E+00             0             0
   61             4             0     1.000E+00             0             0
   62             4             0     1.000E+00             0             0
   63             4             0     1.000E+00             0             0
   64             4             0     1.000E+00             0             0
   65             4             0     1.000E+00             0             0
   66             4             0     1.000E+00             0             0
   67             4             0     1.000E+00             0             0
   68             4             0     1.000E+00             0             0
   69             4             0     1.000E+00             0             0
   70             4             0     1.000E+00             0             0
   71             4             0     1.000E+00             0             0
   72             4             0     1.000E+00             0             0
   73             4             0     1.000E+00             0             0
   74             4             0     1.000E+00             0             0
   75             4             0     1.000E+00             0             0
   76             4             0     1.000E+00             0             0
   77             4             0     1.000E+00             0             0
   78             4             0     1.000E+00             0             0
   79             4             0     1.000E+00             0             0
   80             4             0     1.000E+00             0             0
   81             4             0     1.000E+00             0             0
   82             4             0     1.000E+00             0             0
   83             4             0     1.000E+00             0             0
   84             4             0     1.000E+00             0             0
   85             4             0     1.000E+00             0             0
   86             4             0     1.000E+00             0             0
   87             4             0     1.000E+00             0             0
   88             4             0     1.000E+00             0             0
   89             4             0     1.000E+00             0             0
   90             4             0     1.000E+00             0             0
   91             4             0     1.000E+00             0             0
   92             4             0     1.000E+00             0             0
   93             4             0     1.000E+00             0             0
   94             4             0     1.000E+00             0             0
   95             4             0     1.000E+00             0             0
   96             4             0     1.000E+00             0             0
   97             4             0     1.000E+00             0             0
   98             4             0     1.000E+00             0             0
   99             4             0     1.000E+00             0             0
  100             4             0     1.000E+00             0             0
  101             4             0     1.000E+00             0             0

   INTERPRETATION OF LAYER FLAGS:
                        INTERBLOCK     HORIZONTAL    DATA IN
         LAYER TYPE   TRANSMISSIVITY   ANISOTROPY   ARRAY VKA   WETTABILITY
 LAYER      (LAYTYP)      (LAYAVG)       (CHANI)      (LAYVKA)      (LAYWET)
 ---------------------------------------------------------------------------
    1     UPSTREAM       HARMONIC     1.000E+00    VERTICAL K  NON-WETTABLE
    2     UPSTREAM       HARMONIC     1.000E+00    VERTICAL K  NON-WETTABLE
    3     UPSTREAM       HARMONIC     1.000E+00    VERTICAL K  NON-WETTABLE
    4     UPSTREAM       HARMONIC     1.000E+00    VERTICAL K  NON-WETTABLE
    5     UPSTREAM       HARMONIC     1.000E+00    VERTICAL K  NON-WETTABLE
    6     UPSTREAM       HARMONIC     1.000E+00    VERTICAL K  NON-WETTABLE
    7     UPSTREAM       HARMONIC     1.000E+00    VERTICAL K  NON-WETTABLE
    8     UPSTREAM       HARMONIC     1.000E+00    VERTICAL K  NON-WETTABLE
    9     UPSTREAM       HARMONIC     1.000E+00    VERTICAL K  NON-WETTABLE
   10     UPSTREAM       HARMONIC     1.000E+00    VERTICAL K  NON-WETTABLE
   11     UPSTREAM       HARMONIC     1.000E+00    VERTICAL K  NON-WETTABLE
   12     UPSTREAM       HARMONIC     1.000E+00    VERTICAL K  NON-WETTABLE
   13     UPSTREAM       HARMONIC     1.000E+00    VERTICAL K  NON-WETTABLE
   14     UPSTREAM       HARMONIC     1.000E+00    VERTICAL K  NON-WETTABLE
   15     UPSTREAM       HARMONIC     1.000E+00    VERTICAL K  NON-WETTABLE
   16     UPSTREAM       HARMONIC     1.000E+00    VERTICAL K  NON-WETTABLE
   17     UPSTREAM       HARMONIC     1.000E+00    VERTICAL K  NON-WETTABLE
   18     UPSTREAM       HARMONIC     1.000E+00    VERTICAL K  NON-WETTABLE
   19     UPSTREAM       HARMONIC     1.000E+00    VERTICAL K  NON-WETTABLE
   20     UPSTREAM       HARMONIC     1.000E+00    VERTICAL K  NON-WETTABLE
   21     UPSTREAM       HARMONIC     1.000E+00    VERTICAL K  NON-WETTABLE
   22     UPSTREAM       HARMONIC     1.000E+00    VERTICAL K  NON-WETTABLE
   23     UPSTREAM       HARMONIC     1.000E+00    VERTICAL K  NON-WETTABLE
   24     UPSTREAM       HARMONIC     1.000E+00    VERTICAL K  NON-WETTABLE
   25     UPSTREAM       HARMONIC     1.000E+00    VERTICAL K  NON-WETTABLE
   26     UPSTREAM       HARMONIC     1.000E+00    VERTICAL K  NON-WETTABLE
   27     UPSTREAM       HARMONIC     1.000E+00    VERTICAL K  NON-WETTABLE
   28     UPSTREAM       HARMONIC     1.000E+00    VERTICAL K  NON-WETTABLE
   29     UPSTREAM       HARMONIC     1.000E+00    VERTICAL K  NON-WETTABLE
   30     UPSTREAM       HARMONIC     1.000E+00    VERTICAL K  NON-WETTABLE
   31     UPSTREAM       HARMONIC     1.000E+00    VERTICAL K  NON-WETTABLE
   32     UPSTREAM       HARMONIC     1.000E+00    VERTICAL K  NON-WETTABLE
   33     UPSTREAM       HARMONIC     1.000E+00    VERTICAL K  NON-WETTABLE
   34     UPSTREAM       HARMONIC     1.000E+00    VERTICAL K  NON-WETTABLE
   35     UPSTREAM       HARMONIC     1.000E+00    VERTICAL K  NON-WETTABLE
   36     UPSTREAM       HARMONIC     1.000E+00    VERTICAL K  NON-WETTABLE
   37     UPSTREAM       HARMONIC     1.000E+00    VERTICAL K  NON-WETTABLE
   38     UPSTREAM       HARMONIC     1.000E+00    VERTICAL K  NON-WETTABLE
   39     UPSTREAM       HARMONIC     1.000E+00    VERTICAL K  NON-WETTABLE
   40     UPSTREAM       HARMONIC     1.000E+00    VERTICAL K  NON-WETTABLE
   41     UPSTREAM       HARMONIC     1.000E+00    VERTICAL K  NON-WETTABLE
   42     UPSTREAM       HARMONIC     1.000E+00    VERTICAL K  NON-WETTABLE
   43     UPSTREAM       HARMONIC     1.000E+00    VERTICAL K  NON-WETTABLE
   44     UPSTREAM       HARMONIC     1.000E+00    VERTICAL K  NON-WETTABLE
   45     UPSTREAM       HARMONIC     1.000E+00    VERTICAL K  NON-WETTABLE
   46     UPSTREAM       HARMONIC     1.000E+00    VERTICAL K  NON-WETTABLE
   47     UPSTREAM       HARMONIC     1.000E+00    VERTICAL K  NON-WETTABLE
   48     UPSTREAM       HARMONIC     1.000E+00    VERTICAL K  NON-WETTABLE
   49     UPSTREAM       HARMONIC     1.000E+00    VERTICAL K  NON-WETTABLE
   50     UPSTREAM       HARMONIC     1.000E+00    VERTICAL K  NON-WETTABLE
   51     UPSTREAM       HARMONIC     1.000E+00    VERTICAL K  NON-WETTABLE
   52     UPSTREAM       HARMONIC     1.000E+00    VERTICAL K  NON-WETTABLE
   53     UPSTREAM       HARMONIC     1.000E+00    VERTICAL K  NON-WETTABLE
   54     UPSTREAM       HARMONIC     1.000E+00    VERTICAL K  NON-WETTABLE
   55     UPSTREAM       HARMONIC     1.000E+00    VERTICAL K  NON-WETTABLE
   56     UPSTREAM       HARMONIC     1.000E+00    VERTICAL K  NON-WETTABLE
   57     UPSTREAM       HARMONIC     1.000E+00    VERTICAL K  NON-WETTABLE
   58     UPSTREAM       HARMONIC     1.000E+00    VERTICAL K  NON-WETTABLE
   59     UPSTREAM       HARMONIC     1.000E+00    VERTICAL K  NON-WETTABLE
   60     UPSTREAM       HARMONIC     1.000E+00    VERTICAL K  NON-WETTABLE
   61     UPSTREAM       HARMONIC     1.000E+00    VERTICAL K  NON-WETTABLE
   62     UPSTREAM       HARMONIC     1.000E+00    VERTICAL K  NON-WETTABLE
   63     UPSTREAM       HARMONIC     1.000E+00    VERTICAL K  NON-WETTABLE
   64     UPSTREAM       HARMONIC     1.000E+00    VERTICAL K  NON-WETTABLE
   65     UPSTREAM       HARMONIC     1.000E+00    VERTICAL K  NON-WETTABLE
   66     UPSTREAM       HARMONIC     1.000E+00    VERTICAL K  NON-WETTABLE
   67     UPSTREAM       HARMONIC     1.000E+00    VERTICAL K  NON-WETTABLE
   68     UPSTREAM       HARMONIC     1.000E+00    VERTICAL K  NON-WETTABLE
   69     UPSTREAM       HARMONIC     1.000E+00    VERTICAL K  NON-WETTABLE
   70     UPSTREAM       HARMONIC     1.000E+00    VERTICAL K  NON-WETTABLE
   71     UPSTREAM       HARMONIC     1.000E+00    VERTICAL K  NON-WETTABLE
   72     UPSTREAM       HARMONIC     1.000E+00    VERTICAL K  NON-WETTABLE
   73     UPSTREAM       HARMONIC     1.000E+00    VERTICAL K  NON-WETTABLE
   74     UPSTREAM       HARMONIC     1.000E+00    VERTICAL K  NON-WETTABLE
   75     UPSTREAM       HARMONIC     1.000E+00    VERTICAL K  NON-WETTABLE
   76     UPSTREAM       HARMONIC     1.000E+00    VERTICAL K  NON-WETTABLE
   77     UPSTREAM       HARMONIC     1.000E+00    VERTICAL K  NON-WETTABLE
   78     UPSTREAM       HARMONIC     1.000E+00    VERTICAL K  NON-WETTABLE
   79     UPSTREAM       HARMONIC     1.000E+00    VERTICAL K  NON-WETTABLE
   80     UPSTREAM       HARMONIC     1.000E+00    VERTICAL K  NON-WETTABLE
   81     UPSTREAM       HARMONIC     1.000E+00    VERTICAL K  NON-WETTABLE
   82     UPSTREAM       HARMONIC     1.000E+00    VERTICAL K  NON-WETTABLE
   83     UPSTREAM       HARMONIC     1.000E+00    VERTICAL K  NON-WETTABLE
   84     UPSTREAM       HARMONIC     1.000E+00    VERTICAL K  NON-WETTABLE
   85     UPSTREAM       HARMONIC     1.000E+00    VERTICAL K  NON-WETTABLE
   86     UPSTREAM       HARMONIC     1.000E+00    VERTICAL K  NON-WETTABLE
   87     UPSTREAM       HARMONIC     1.000E+00    VERTICAL K  NON-WETTABLE
   88     UPSTREAM       HARMONIC     1.000E+00    VERTICAL K  NON-WETTABLE
   89     UPSTREAM       HARMONIC     1.000E+00    VERTICAL K  NON-WETTABLE
   90     UPSTREAM       HARMONIC     1.000E+00    VERTICAL K  NON-WETTABLE
   91     UPSTREAM       HARMONIC     1.000E+00    VERTICAL K  NON-WETTABLE
   92     UPSTREAM       HARMONIC     1.000E+00    VERTICAL K  NON-WETTABLE
   93     UPSTREAM       HARMONIC     1.000E+00    VERTICAL K  NON-WETTABLE
   94     UPSTREAM       HARMONIC     1.000E+00    VERTICAL K  NON-WETTABLE
   95     UPSTREAM       HARMONIC     1.000E+00    VERTICAL K  NON-WETTABLE
   96     UPSTREAM       HARMONIC     1.000E+00    VERTICAL K  NON-WETTABLE
   97     UPSTREAM       HARMONIC     1.000E+00    VERTICAL K  NON-WETTABLE
   98     UPSTREAM       HARMONIC     1.000E+00    VERTICAL K  NON-WETTABLE
   99     UPSTREAM       HARMONIC     1.000E+00    VERTICAL K  NON-WETTABLE
  100     UPSTREAM       HARMONIC     1.000E+00    VERTICAL K  NON-WETTABLE
  101     UPSTREAM       HARMONIC     1.000E+00    VERTICAL K  NON-WETTABLE

 WETTING CAPABILITY IS NOT ACTIVE IN ANY LAYER



              HYD. COND. ALONG ROWS FOR LAYER   1
 READING ON UNIT   11 WITH FORMAT: (FREE)              



                VERTICAL HYD. COND. FOR LAYER   1
 READING ON UNIT   11 WITH FORMAT: (FREE)              



                   SPECIFIC STORAGE FOR LAYER   1
 READING ON UNIT   11 WITH FORMAT: (FREE)              



                     SPECIFIC YIELD FOR LAYER   1
 READING ON UNIT   11 WITH FORMAT: (FREE)              



                              alpha FOR LAYER   1
 READING ON UNIT   11 WITH FORMAT: (FREE)              



                               beta FOR LAYER   1
 READING ON UNIT   11 WITH FORMAT: (FREE)              



                                 sr FOR LAYER   1
 READING ON UNIT   11 WITH FORMAT: (FREE)              



                              brook FOR LAYER   1
 READING ON UNIT   11 WITH FORMAT: (FREE)              



              HYD. COND. ALONG ROWS FOR LAYER   2
 READING ON UNIT   11 WITH FORMAT: (FREE)              



                VERTICAL HYD. COND. FOR LAYER   2
 READING ON UNIT   11 WITH FORMAT: (FREE)              



                   SPECIFIC STORAGE FOR LAYER   2
 READING ON UNIT   11 WITH FORMAT: (FREE)              



                     SPECIFIC YIELD FOR LAYER   2
 READING ON UNIT   11 WITH FORMAT: (FREE)              



                              alpha FOR LAYER   2
 READING ON UNIT   11 WITH FORMAT: (FREE)              



                               beta FOR LAYER   2
 READING ON UNIT   11 WITH FORMAT: (FREE)              



                                 sr FOR LAYER   2
 READING ON UNIT   11 WITH FORMAT: (FREE)              



                              brook FOR LAYER   2
 READING ON UNIT   11 WITH FORMAT: (FREE)              



              HYD. COND. ALONG ROWS FOR LAYER   3
 READING ON UNIT   11 WITH FORMAT: (FREE)              



                VERTICAL HYD. COND. FOR LAYER   3
 READING ON UNIT   11 WITH FORMAT: (FREE)              



                   SPECIFIC STORAGE FOR LAYER   3
 READING ON UNIT   11 WITH FORMAT: (FREE)              



                     SPECIFIC YIELD FOR LAYER   3
 READING ON UNIT   11 WITH FORMAT: (FREE)              



                              alpha FOR LAYER   3
 READING ON UNIT   11 WITH FORMAT: (FREE)              



                               beta FOR LAYER   3
 READING ON UNIT   11 WITH FORMAT: (FREE)              



                                 sr FOR LAYER   3
 READING ON UNIT   11 WITH FORMAT: (FREE)              



                              brook FOR LAYER   3
 READING ON UNIT   11 WITH FORMAT: (FREE)              



              HYD. COND. ALONG ROWS FOR LAYER   4
 READING ON UNIT   11 WITH FORMAT: (FREE)              



                VERTICAL HYD. COND. FOR LAYER   4
 READING ON UNIT   11 WITH FORMAT: (FREE)              



                   SPECIFIC STORAGE FOR LAYER   4
 READING ON UNIT   11 WITH FORMAT: (FREE)              



                     SPECIFIC YIELD FOR LAYER   4
 READING ON UNIT   11 WITH FORMAT: (FREE)              



                              alpha FOR LAYER   4
 READING ON UNIT   11 WITH FORMAT: (FREE)              



                               beta FOR LAYER   4
 READING ON UNIT   11 WITH FORMAT: (FREE)              



                                 sr FOR LAYER   4
 READING ON UNIT   11 WITH FORMAT: (FREE)              



                              brook FOR LAYER   4
 READING ON UNIT   11 WITH FORMAT: (FREE)              



              HYD. COND. ALONG ROWS FOR LAYER   5
 READING ON UNIT   11 WITH FORMAT: (FREE)              



                VERTICAL HYD. COND. FOR LAYER   5
 READING ON UNIT   11 WITH FORMAT: (FREE)              



                   SPECIFIC STORAGE FOR LAYER   5
 READING ON UNIT   11 WITH FORMAT: (FREE)              



                     SPECIFIC YIELD FOR LAYER   5
 READING ON UNIT   11 WITH FORMAT: (FREE)              



                              alpha FOR LAYER   5
 READING ON UNIT   11 WITH FORMAT: (FREE)              



                               beta FOR LAYER   5
 READING ON UNIT   11 WITH FORMAT: (FREE)              



                                 sr FOR LAYER   5
 READING ON UNIT   11 WITH FORMAT: (FREE)              



                              brook FOR LAYER   5
 READING ON UNIT   11 WITH FORMAT: (FREE)              



              HYD. COND. ALONG ROWS FOR LAYER   6
 READING ON UNIT   11 WITH FORMAT: (FREE)              



                VERTICAL HYD. COND. FOR LAYER   6
 READING ON UNIT   11 WITH FORMAT: (FREE)              



                   SPECIFIC STORAGE FOR LAYER   6
 READING ON UNIT   11 WITH FORMAT: (FREE)              



                     SPECIFIC YIELD FOR LAYER   6
 READING ON UNIT   11 WITH FORMAT: (FREE)              



                              alpha FOR LAYER   6
 READING ON UNIT   11 WITH FORMAT: (FREE)              



                               beta FOR LAYER   6
 READING ON UNIT   11 WITH FORMAT: (FREE)              



                                 sr FOR LAYER   6
 READING ON UNIT   11 WITH FORMAT: (FREE)              



                              brook FOR LAYER   6
 READING ON UNIT   11 WITH FORMAT: (FREE)              



              HYD. COND. ALONG ROWS FOR LAYER   7
 READING ON UNIT   11 WITH FORMAT: (FREE)              



                VERTICAL HYD. COND. FOR LAYER   7
 READING ON UNIT   11 WITH FORMAT: (FREE)              



                   SPECIFIC STORAGE FOR LAYER   7
 READING ON UNIT   11 WITH FORMAT: (FREE)              



                     SPECIFIC YIELD FOR LAYER   7
 READING ON UNIT   11 WITH FORMAT: (FREE)              



                              alpha FOR LAYER   7
 READING ON UNIT   11 WITH FORMAT: (FREE)              



                               beta FOR LAYER   7
 READING ON UNIT   11 WITH FORMAT: (FREE)              



                                 sr FOR LAYER   7
 READING ON UNIT   11 WITH FORMAT: (FREE)              



                              brook FOR LAYER   7
 READING ON UNIT   11 WITH FORMAT: (FREE)              



              HYD. COND. ALONG ROWS FOR LAYER   8
 READING ON UNIT   11 WITH FORMAT: (FREE)              



                VERTICAL HYD. COND. FOR LAYER   8
 READING ON UNIT   11 WITH FORMAT: (FREE)              



                   SPECIFIC STORAGE FOR LAYER   8
 READING ON UNIT   11 WITH FORMAT: (FREE)              



                     SPECIFIC YIELD FOR LAYER   8
 READING ON UNIT   11 WITH FORMAT: (FREE)              



                              alpha FOR LAYER   8
 READING ON UNIT   11 WITH FORMAT: (FREE)              



                               beta FOR LAYER   8
 READING ON UNIT   11 WITH FORMAT: (FREE)              



                                 sr FOR LAYER   8
 READING ON UNIT   11 WITH FORMAT: (FREE)              



                              brook FOR LAYER   8
 READING ON UNIT   11 WITH FORMAT: (FREE)              



              HYD. COND. ALONG ROWS FOR LAYER   9
 READING ON UNIT   11 WITH FORMAT: (FREE)              



                VERTICAL HYD. COND. FOR LAYER   9
 READING ON UNIT   11 WITH FORMAT: (FREE)              



                   SPECIFIC STORAGE FOR LAYER   9
 READING ON UNIT   11 WITH FORMAT: (FREE)              



                     SPECIFIC YIELD FOR LAYER   9
 READING ON UNIT   11 WITH FORMAT: (FREE)              



                              alpha FOR LAYER   9
 READING ON UNIT   11 WITH FORMAT: (FREE)              



                               beta FOR LAYER   9
 READING ON UNIT   11 WITH FORMAT: (FREE)              



                                 sr FOR LAYER   9
 READING ON UNIT   11 WITH FORMAT: (FREE)              



                              brook FOR LAYER   9
 READING ON UNIT   11 WITH FORMAT: (FREE)              



              HYD. COND. ALONG ROWS FOR LAYER  10
 READING ON UNIT   11 WITH FORMAT: (FREE)              



                VERTICAL HYD. COND. FOR LAYER  10
 READING ON UNIT   11 WITH FORMAT: (FREE)              



                   SPECIFIC STORAGE FOR LAYER  10
 READING ON UNIT   11 WITH FORMAT: (FREE)              



                     SPECIFIC YIELD FOR LAYER  10
 READING ON UNIT   11 WITH FORMAT: (FREE)              



                              alpha FOR LAYER  10
 READING ON UNIT   11 WITH FORMAT: (FREE)              



                               beta FOR LAYER  10
 READING ON UNIT   11 WITH FORMAT: (FREE)              



                                 sr FOR LAYER  10
 READING ON UNIT   11 WITH FORMAT: (FREE)              



                              brook FOR LAYER  10
 READING ON UNIT   11 WITH FORMAT: (FREE)              



              HYD. COND. ALONG ROWS FOR LAYER  11
 READING ON UNIT   11 WITH FORMAT: (FREE)              



                VERTICAL HYD. COND. FOR LAYER  11
 READING ON UNIT   11 WITH FORMAT: (FREE)              



                   SPECIFIC STORAGE FOR LAYER  11
 READING ON UNIT   11 WITH FORMAT: (FREE)              



                     SPECIFIC YIELD FOR LAYER  11
 READING ON UNIT   11 WITH FORMAT: (FREE)              



                              alpha FOR LAYER  11
 READING ON UNIT   11 WITH FORMAT: (FREE)              



                               beta FOR LAYER  11
 READING ON UNIT   11 WITH FORMAT: (FREE)              



                                 sr FOR LAYER  11
 READING ON UNIT   11 WITH FORMAT: (FREE)              



                              brook FOR LAYER  11
 READING ON UNIT   11 WITH FORMAT: (FREE)              



              HYD. COND. ALONG ROWS FOR LAYER  12
 READING ON UNIT   11 WITH FORMAT: (FREE)              



                VERTICAL HYD. COND. FOR LAYER  12
 READING ON UNIT   11 WITH FORMAT: (FREE)              



                   SPECIFIC STORAGE FOR LAYER  12
 READING ON UNIT   11 WITH FORMAT: (FREE)              



                     SPECIFIC YIELD FOR LAYER  12
 READING ON UNIT   11 WITH FORMAT: (FREE)              



                              alpha FOR LAYER  12
 READING ON UNIT   11 WITH FORMAT: (FREE)              



                               beta FOR LAYER  12
 READING ON UNIT   11 WITH FORMAT: (FREE)              



                                 sr FOR LAYER  12
 READING ON UNIT   11 WITH FORMAT: (FREE)              



                              brook FOR LAYER  12
 READING ON UNIT   11 WITH FORMAT: (FREE)              



              HYD. COND. ALONG ROWS FOR LAYER  13
 READING ON UNIT   11 WITH FORMAT: (FREE)              



                VERTICAL HYD. COND. FOR LAYER  13
 READING ON UNIT   11 WITH FORMAT: (FREE)              



                   SPECIFIC STORAGE FOR LAYER  13
 READING ON UNIT   11 WITH FORMAT: (FREE)              



                     SPECIFIC YIELD FOR LAYER  13
 READING ON UNIT   11 WITH FORMAT: (FREE)              



                              alpha FOR LAYER  13
 READING ON UNIT   11 WITH FORMAT: (FREE)              



                               beta FOR LAYER  13
 READING ON UNIT   11 WITH FORMAT: (FREE)              



                                 sr FOR LAYER  13
 READING ON UNIT   11 WITH FORMAT: (FREE)              



                              brook FOR LAYER  13
 READING ON UNIT   11 WITH FORMAT: (FREE)              



              HYD. COND. ALONG ROWS FOR LAYER  14
 READING ON UNIT   11 WITH FORMAT: (FREE)              



                VERTICAL HYD. COND. FOR LAYER  14
 READING ON UNIT   11 WITH FORMAT: (FREE)              



                   SPECIFIC STORAGE FOR LAYER  14
 READING ON UNIT   11 WITH FORMAT: (FREE)              



                     SPECIFIC YIELD FOR LAYER  14
 READING ON UNIT   11 WITH FORMAT: (FREE)              



                              alpha FOR LAYER  14
 READING ON UNIT   11 WITH FORMAT: (FREE)              



                               beta FOR LAYER  14
 READING ON UNIT   11 WITH FORMAT: (FREE)              



                                 sr FOR LAYER  14
 READING ON UNIT   11 WITH FORMAT: (FREE)              



                              brook FOR LAYER  14
 READING ON UNIT   11 WITH FORMAT: (FREE)              



              HYD. COND. ALONG ROWS FOR LAYER  15
 READING ON UNIT   11 WITH FORMAT: (FREE)              



                VERTICAL HYD. COND. FOR LAYER  15
 READING ON UNIT   11 WITH FORMAT: (FREE)              



                   SPECIFIC STORAGE FOR LAYER  15
 READING ON UNIT   11 WITH FORMAT: (FREE)              



                     SPECIFIC YIELD FOR LAYER  15
 READING ON UNIT   11 WITH FORMAT: (FREE)              



                              alpha FOR LAYER  15
 READING ON UNIT   11 WITH FORMAT: (FREE)              



                               beta FOR LAYER  15
 READING ON UNIT   11 WITH FORMAT: (FREE)              



                                 sr FOR LAYER  15
 READING ON UNIT   11 WITH FORMAT: (FREE)              



                              brook FOR LAYER  15
 READING ON UNIT   11 WITH FORMAT: (FREE)              



              HYD. COND. ALONG ROWS FOR LAYER  16
 READING ON UNIT   11 WITH FORMAT: (FREE)              



                VERTICAL HYD. COND. FOR LAYER  16
 READING ON UNIT   11 WITH FORMAT: (FREE)              



                   SPECIFIC STORAGE FOR LAYER  16
 READING ON UNIT   11 WITH FORMAT: (FREE)              



                     SPECIFIC YIELD FOR LAYER  16
 READING ON UNIT   11 WITH FORMAT: (FREE)              



                              alpha FOR LAYER  16
 READING ON UNIT   11 WITH FORMAT: (FREE)              



                               beta FOR LAYER  16
 READING ON UNIT   11 WITH FORMAT: (FREE)              



                                 sr FOR LAYER  16
 READING ON UNIT   11 WITH FORMAT: (FREE)              



                              brook FOR LAYER  16
 READING ON UNIT   11 WITH FORMAT: (FREE)              



              HYD. COND. ALONG ROWS FOR LAYER  17
 READING ON UNIT   11 WITH FORMAT: (FREE)              



                VERTICAL HYD. COND. FOR LAYER  17
 READING ON UNIT   11 WITH FORMAT: (FREE)              



                   SPECIFIC STORAGE FOR LAYER  17
 READING ON UNIT   11 WITH FORMAT: (FREE)              



                     SPECIFIC YIELD FOR LAYER  17
 READING ON UNIT   11 WITH FORMAT: (FREE)              



                              alpha FOR LAYER  17
 READING ON UNIT   11 WITH FORMAT: (FREE)              



                               beta FOR LAYER  17
 READING ON UNIT   11 WITH FORMAT: (FREE)              



                                 sr FOR LAYER  17
 READING ON UNIT   11 WITH FORMAT: (FREE)              



                              brook FOR LAYER  17
 READING ON UNIT   11 WITH FORMAT: (FREE)              



              HYD. COND. ALONG ROWS FOR LAYER  18
 READING ON UNIT   11 WITH FORMAT: (FREE)              



                VERTICAL HYD. COND. FOR LAYER  18
 READING ON UNIT   11 WITH FORMAT: (FREE)              



                   SPECIFIC STORAGE FOR LAYER  18
 READING ON UNIT   11 WITH FORMAT: (FREE)              



                     SPECIFIC YIELD FOR LAYER  18
 READING ON UNIT   11 WITH FORMAT: (FREE)              



                              alpha FOR LAYER  18
 READING ON UNIT   11 WITH FORMAT: (FREE)              



                               beta FOR LAYER  18
 READING ON UNIT   11 WITH FORMAT: (FREE)              



                                 sr FOR LAYER  18
 READING ON UNIT   11 WITH FORMAT: (FREE)              



                              brook FOR LAYER  18
 READING ON UNIT   11 WITH FORMAT: (FREE)              



              HYD. COND. ALONG ROWS FOR LAYER  19
 READING ON UNIT   11 WITH FORMAT: (FREE)              



                VERTICAL HYD. COND. FOR LAYER  19
 READING ON UNIT   11 WITH FORMAT: (FREE)              



                   SPECIFIC STORAGE FOR LAYER  19
 READING ON UNIT   11 WITH FORMAT: (FREE)              



                     SPECIFIC YIELD FOR LAYER  19
 READING ON UNIT   11 WITH FORMAT: (FREE)              



                              alpha FOR LAYER  19
 READING ON UNIT   11 WITH FORMAT: (FREE)              



                               beta FOR LAYER  19
 READING ON UNIT   11 WITH FORMAT: (FREE)              



                                 sr FOR LAYER  19
 READING ON UNIT   11 WITH FORMAT: (FREE)              



                              brook FOR LAYER  19
 READING ON UNIT   11 WITH FORMAT: (FREE)              



              HYD. COND. ALONG ROWS FOR LAYER  20
 READING ON UNIT   11 WITH FORMAT: (FREE)              



                VERTICAL HYD. COND. FOR LAYER  20
 READING ON UNIT   11 WITH FORMAT: (FREE)              



                   SPECIFIC STORAGE FOR LAYER  20
 READING ON UNIT   11 WITH FORMAT: (FREE)              



                     SPECIFIC YIELD FOR LAYER  20
 READING ON UNIT   11 WITH FORMAT: (FREE)              



                              alpha FOR LAYER  20
 READING ON UNIT   11 WITH FORMAT: (FREE)              



                               beta FOR LAYER  20
 READING ON UNIT   11 WITH FORMAT: (FREE)              



                                 sr FOR LAYER  20
 READING ON UNIT   11 WITH FORMAT: (FREE)              



                              brook FOR LAYER  20
 READING ON UNIT   11 WITH FORMAT: (FREE)              



              HYD. COND. ALONG ROWS FOR LAYER  21
 READING ON UNIT   11 WITH FORMAT: (FREE)              



                VERTICAL HYD. COND. FOR LAYER  21
 READING ON UNIT   11 WITH FORMAT: (FREE)              



                   SPECIFIC STORAGE FOR LAYER  21
 READING ON UNIT   11 WITH FORMAT: (FREE)              



                     SPECIFIC YIELD FOR LAYER  21
 READING ON UNIT   11 WITH FORMAT: (FREE)              



                              alpha FOR LAYER  21
 READING ON UNIT   11 WITH FORMAT: (FREE)              



                               beta FOR LAYER  21
 READING ON UNIT   11 WITH FORMAT: (FREE)              



                                 sr FOR LAYER  21
 READING ON UNIT   11 WITH FORMAT: (FREE)              



                              brook FOR LAYER  21
 READING ON UNIT   11 WITH FORMAT: (FREE)              



              HYD. COND. ALONG ROWS FOR LAYER  22
 READING ON UNIT   11 WITH FORMAT: (FREE)              



                VERTICAL HYD. COND. FOR LAYER  22
 READING ON UNIT   11 WITH FORMAT: (FREE)              



                   SPECIFIC STORAGE FOR LAYER  22
 READING ON UNIT   11 WITH FORMAT: (FREE)              



                     SPECIFIC YIELD FOR LAYER  22
 READING ON UNIT   11 WITH FORMAT: (FREE)              



                              alpha FOR LAYER  22
 READING ON UNIT   11 WITH FORMAT: (FREE)              



                               beta FOR LAYER  22
 READING ON UNIT   11 WITH FORMAT: (FREE)              



                                 sr FOR LAYER  22
 READING ON UNIT   11 WITH FORMAT: (FREE)              



                              brook FOR LAYER  22
 READING ON UNIT   11 WITH FORMAT: (FREE)              



              HYD. COND. ALONG ROWS FOR LAYER  23
 READING ON UNIT   11 WITH FORMAT: (FREE)              



                VERTICAL HYD. COND. FOR LAYER  23
 READING ON UNIT   11 WITH FORMAT: (FREE)              



                   SPECIFIC STORAGE FOR LAYER  23
 READING ON UNIT   11 WITH FORMAT: (FREE)              



                     SPECIFIC YIELD FOR LAYER  23
 READING ON UNIT   11 WITH FORMAT: (FREE)              



                              alpha FOR LAYER  23
 READING ON UNIT   11 WITH FORMAT: (FREE)              



                               beta FOR LAYER  23
 READING ON UNIT   11 WITH FORMAT: (FREE)              



                                 sr FOR LAYER  23
 READING ON UNIT   11 WITH FORMAT: (FREE)              



                              brook FOR LAYER  23
 READING ON UNIT   11 WITH FORMAT: (FREE)              



              HYD. COND. ALONG ROWS FOR LAYER  24
 READING ON UNIT   11 WITH FORMAT: (FREE)              



                VERTICAL HYD. COND. FOR LAYER  24
 READING ON UNIT   11 WITH FORMAT: (FREE)              



                   SPECIFIC STORAGE FOR LAYER  24
 READING ON UNIT   11 WITH FORMAT: (FREE)              



                     SPECIFIC YIELD FOR LAYER  24
 READING ON UNIT   11 WITH FORMAT: (FREE)              



                              alpha FOR LAYER  24
 READING ON UNIT   11 WITH FORMAT: (FREE)              



                               beta FOR LAYER  24
 READING ON UNIT   11 WITH FORMAT: (FREE)              



                                 sr FOR LAYER  24
 READING ON UNIT   11 WITH FORMAT: (FREE)              



                              brook FOR LAYER  24
 READING ON UNIT   11 WITH FORMAT: (FREE)              



              HYD. COND. ALONG ROWS FOR LAYER  25
 READING ON UNIT   11 WITH FORMAT: (FREE)              



[...]
           ---                                      ---
             STORAGE =       6.2553E-15               STORAGE =           0.0000
       CONSTANT HEAD =           0.0000         CONSTANT HEAD =           0.0000
            RECHARGE =          79.4000              RECHARGE =           0.4000

            TOTAL IN =          79.4000              TOTAL IN =           0.4000

          OUT:                                     OUT:
          ----                                     ----
             STORAGE =           4.2918               STORAGE =       6.4242E-13
       CONSTANT HEAD =          75.1081         CONSTANT HEAD =           0.4000
            RECHARGE =           0.0000              RECHARGE =           0.0000

           TOTAL OUT =          79.4000             TOTAL OUT =           0.4000

            IN - OUT =       1.5216E-05              IN - OUT =       3.2085E-14

 PERCENT DISCREPANCY =           0.00     PERCENT DISCREPANCY =           0.00






          TIME SUMMARY AT END OF TIME STEP       842 IN STRESS PERIOD         1
                    SECONDS     MINUTES      HOURS       DAYS        YEARS
                    -----------------------------------------------------------
   TIME STEP LENGTH  21600.      360.00      6.0000     0.25000     6.84463E-04
 STRESS PERIOD TIME 1.71504E+07 2.85840E+05  4764.0      198.50     0.54346    
         TOTAL TIME 1.71504E+07 2.85840E+05  4764.0      198.50     0.54346    
1
 -------------------------------------------------------------------------------------
 
 SOLVING FOR HEAD 

 Outer-Iteration  Inner-Iteration  Backtracking  Number of        Incoming       Outgoing      Cutoff     Maximum Head Change      Maximum Head Change
     Number           Count           Flag       Backtracks       Residual       Residual      Residual            Value               Location
        1                             0             0          0.103709E-26     0.103709E-26   -1.00000    
        1                1                                                                                      -0.454747E-12                 92           GWF-node number
     1 CALLS TO SPARSE MATRIX SOLVER PACKAGE  IN FLOW TIME STEP     843 STRESS PERIOD       1

 TOTAL OF       1OUTER ITERATIONS
  MAXIMUM CHANGE FOR EACH ITERATION:
   MAX. CHANGE        NODE  MAX. CHANGE        NODE  MAX. CHANGE        NODE  MAX. CHANGE        NODE  MAX. CHANGE        NODE
 ------------------------------------------------------------------------------------------------------------------------------------
  -0.45475E-12,         92
1
  VOLUMETRIC BUDGET FOR ENTIRE MODEL AT END OF TIME STEP     843 IN STRESS PERIOD       1
  ---------------------------------------------------------------------------------------

     CUMULATIVE VOLUMES      L**3       RATES FOR THIS TIME STEP      L**3/T
     ------------------                 ------------------------

           IN:                                      IN:
           ---                                      ---
             STORAGE =       6.2553E-15               STORAGE =           0.0000
       CONSTANT HEAD =           0.0000         CONSTANT HEAD =           0.0000
            RECHARGE =          79.5000              RECHARGE =           0.4000

            TOTAL IN =          79.5000              TOTAL IN =           0.4000

          OUT:                                     OUT:
          ----                                     ----
             STORAGE =           4.2918               STORAGE =       6.9756E-13
       CONSTANT HEAD =          75.2081         CONSTANT HEAD =           0.4000
            RECHARGE =           0.0000              RECHARGE =           0.0000

           TOTAL OUT =          79.5000             TOTAL OUT =           0.4000

            IN - OUT =       1.5216E-05              IN - OUT =      -2.4980E-14

 PERCENT DISCREPANCY =           0.00     PERCENT DISCREPANCY =          -0.00






          TIME SUMMARY AT END OF TIME STEP       843 IN STRESS PERIOD         1
                    SECONDS     MINUTES      HOURS       DAYS        YEARS
                    -----------------------------------------------------------
   TIME STEP LENGTH  21600.      360.00      6.0000     0.25000     6.84463E-04
 STRESS PERIOD TIME 1.71720E+07 2.86200E+05  4770.0      198.75     0.54415    
         TOTAL TIME 1.71720E+07 2.86200E+05  4770.0      198.75     0.54415    
1
 -------------------------------------------------------------------------------------
 
 SOLVING FOR HEAD 

 Outer-Iteration  Inner-Iteration  Backtracking  Number of        Incoming       Outgoing      Cutoff     Maximum Head Change      Maximum Head Change
     Number           Count           Flag       Backtracks       Residual       Residual      Residual            Value               Location
        1                             0             0          0.988565E-26     0.988565E-26   -1.00000    
        1                1                                                                                       0.247979E-11                 88           GWF-node number
     1 CALLS TO SPARSE MATRIX SOLVER PACKAGE  IN FLOW TIME STEP     844 STRESS PERIOD       1

 TOTAL OF       1OUTER ITERATIONS
  MAXIMUM CHANGE FOR EACH ITERATION:
   MAX. CHANGE        NODE  MAX. CHANGE        NODE  MAX. CHANGE        NODE  MAX. CHANGE        NODE  MAX. CHANGE        NODE
 ------------------------------------------------------------------------------------------------------------------------------------
   0.24798E-11,         88
1
  VOLUMETRIC BUDGET FOR ENTIRE MODEL AT END OF TIME STEP     844 IN STRESS PERIOD       1
  ---------------------------------------------------------------------------------------

     CUMULATIVE VOLUMES      L**3       RATES FOR THIS TIME STEP      L**3/T
     ------------------                 ------------------------

           IN:                                      IN:
           ---                                      ---
             STORAGE =       6.2553E-15               STORAGE =           0.0000
       CONSTANT HEAD =           0.0000         CONSTANT HEAD =           0.0000
            RECHARGE =          79.6000              RECHARGE =           0.4000

            TOTAL IN =          79.6000              TOTAL IN =           0.4000

          OUT:                                     OUT:
          ----                                     ----
             STORAGE =           4.2918               STORAGE =       6.8138E-13
       CONSTANT HEAD =          75.3081         CONSTANT HEAD =           0.4000
            RECHARGE =           0.0000              RECHARGE =           0.0000

           TOTAL OUT =          79.6000             TOTAL OUT =           0.4000

            IN - OUT =       1.5216E-05              IN - OUT =      -5.2902E-14

 PERCENT DISCREPANCY =           0.00     PERCENT DISCREPANCY =          -0.00






          TIME SUMMARY AT END OF TIME STEP       844 IN STRESS PERIOD         1
                    SECONDS     MINUTES      HOURS       DAYS        YEARS
                    -----------------------------------------------------------
   TIME STEP LENGTH  21600.      360.00      6.0000     0.25000     6.84463E-04
 STRESS PERIOD TIME 1.71936E+07 2.86560E+05  4776.0      199.00     0.54483    
         TOTAL TIME 1.71936E+07 2.86560E+05  4776.0      199.00     0.54483    
1
 -------------------------------------------------------------------------------------
 
 SOLVING FOR HEAD 

 Outer-Iteration  Inner-Iteration  Backtracking  Number of        Incoming       Outgoing      Cutoff     Maximum Head Change      Maximum Head Change
     Number           Count           Flag       Backtracks       Residual       Residual      Residual            Value               Location
        1                             0             0          0.113667E-26     0.113667E-26   -1.00000    
        1                1                                                                                      -0.575540E-12                 90           GWF-node number
     1 CALLS TO SPARSE MATRIX SOLVER PACKAGE  IN FLOW TIME STEP     845 STRESS PERIOD       1

 TOTAL OF       1OUTER ITERATIONS
  MAXIMUM CHANGE FOR EACH ITERATION:
   MAX. CHANGE        NODE  MAX. CHANGE        NODE  MAX. CHANGE        NODE  MAX. CHANGE        NODE  MAX. CHANGE        NODE
 ------------------------------------------------------------------------------------------------------------------------------------
  -0.57554E-12,         90
1
  VOLUMETRIC BUDGET FOR ENTIRE MODEL AT END OF TIME STEP     845 IN STRESS PERIOD       1
  ---------------------------------------------------------------------------------------

     CUMULATIVE VOLUMES      L**3       RATES FOR THIS TIME STEP      L**3/T
     ------------------                 ------------------------

           IN:                                      IN:
           ---                                      ---
             STORAGE =       6.2553E-15               STORAGE =           0.0000
       CONSTANT HEAD =           0.0000         CONSTANT HEAD =           0.0000
            RECHARGE =          79.7000              RECHARGE =           0.4000

            TOTAL IN =          79.7000              TOTAL IN =           0.4000

          OUT:                                     OUT:
          ----                                     ----
             STORAGE =           4.2918               STORAGE =       6.6453E-13
       CONSTANT HEAD =          75.4081         CONSTANT HEAD =           0.4000
            RECHARGE =           0.0000              RECHARGE =           0.0000

           TOTAL OUT =          79.7000             TOTAL OUT =           0.4000

            IN - OUT =       1.5216E-05              IN - OUT =      -3.6582E-14

 PERCENT DISCREPANCY =           0.00     PERCENT DISCREPANCY =          -0.00






          TIME SUMMARY AT END OF TIME STEP       845 IN STRESS PERIOD         1
                    SECONDS     MINUTES      HOURS       DAYS        YEARS
                    -----------------------------------------------------------
   TIME STEP LENGTH  21600.      360.00      6.0000     0.25000     6.84463E-04
 STRESS PERIOD TIME 1.72152E+07 2.86920E+05  4782.0      199.25     0.54552    
         TOTAL TIME 1.72152E+07 2.86920E+05  4782.0      199.25     0.54552    
1
 -------------------------------------------------------------------------------------
 
 SOLVING FOR HEAD 

 Outer-Iteration  Inner-Iteration  Backtracking  Number of        Incoming       Outgoing      Cutoff     Maximum Head Change      Maximum Head Change
     Number           Count           Flag       Backtracks       Residual       Residual      Residual            Value               Location
        1                             0             0          0.835511E-26     0.835511E-26   -1.00000    
        1                1                                                                                       0.238742E-11                 87           GWF-node number
     1 CALLS TO SPARSE MATRIX SOLVER PACKAGE  IN FLOW TIME STEP     846 STRESS PERIOD       1

 TOTAL OF       1OUTER ITERATIONS
  MAXIMUM CHANGE FOR EACH ITERATION:
   MAX. CHANGE        NODE  MAX. CHANGE        NODE  MAX. CHANGE        NODE  MAX. CHANGE        NODE  MAX. CHANGE        NODE
 ------------------------------------------------------------------------------------------------------------------------------------
   0.23874E-11,         87
1
  VOLUMETRIC BUDGET FOR ENTIRE MODEL AT END OF TIME STEP     846 IN STRESS PERIOD       1
  ---------------------------------------------------------------------------------------

     CUMULATIVE VOLUMES      L**3       RATES FOR THIS TIME STEP      L**3/T
     ------------------                 ------------------------

           IN:                                      IN:
           ---                                      ---
             STORAGE =       6.2553E-15               STORAGE =           0.0000
       CONSTANT HEAD =           0.0000         CONSTANT HEAD =           0.0000
            RECHARGE =          79.8000              RECHARGE =           0.4000

            TOTAL IN =          79.8000              TOTAL IN =           0.4000

          OUT:                                     OUT:
          ----                                     ----
             STORAGE =           4.2918               STORAGE =       5.8551E-13
       CONSTANT HEAD =          75.5081         CONSTANT HEAD =           0.4000
            RECHARGE =           0.0000              RECHARGE =           0.0000

           TOTAL OUT =          79.8000             TOTAL OUT =           0.4000

            IN - OUT =       1.5216E-05              IN - OUT =      -4.9960E-16

 PERCENT DISCREPANCY =           0.00     PERCENT DISCREPANCY =          -0.00






          TIME SUMMARY AT END OF TIME STEP       846 IN STRESS PERIOD         1
                    SECONDS     MINUTES      HOURS       DAYS        YEARS
                    -----------------------------------------------------------
   TIME STEP LENGTH  21600.      360.00      6.0000     0.25000     6.84463E-04
 STRESS PERIOD TIME 1.72368E+07 2.87280E+05  4788.0      199.50     0.54620    
         TOTAL TIME 1.72368E+07 2.87280E+05  4788.0      199.50     0.54620    
1
 -------------------------------------------------------------------------------------
 
 SOLVING FOR HEAD 

 Outer-Iteration  Inner-Iteration  Backtracking  Number of        Incoming       Outgoing      Cutoff     Maximum Head Change      Maximum Head Change
     Number           Count           Flag       Backtracks       Residual       Residual      Residual            Value               Location
        1                             0             0          0.897268E-27     0.897268E-27   -1.00000    
        1                1                                                                                      -0.511591E-12                 93           GWF-node number
     1 CALLS TO SPARSE MATRIX SOLVER PACKAGE  IN FLOW TIME STEP     847 STRESS PERIOD       1

 TOTAL OF       1OUTER ITERATIONS
  MAXIMUM CHANGE FOR EACH ITERATION:
   MAX. CHANGE        NODE  MAX. CHANGE        NODE  MAX. CHANGE        NODE  MAX. CHANGE        NODE  MAX. CHANGE        NODE
 ------------------------------------------------------------------------------------------------------------------------------------
  -0.51159E-12,         93
1
  VOLUMETRIC BUDGET FOR ENTIRE MODEL AT END OF TIME STEP     847 IN STRESS PERIOD       1
  ---------------------------------------------------------------------------------------

     CUMULATIVE VOLUMES      L**3       RATES FOR THIS TIME STEP      L**3/T
     ------------------                 ------------------------

           IN:                                      IN:
           ---                                      ---
             STORAGE =       6.2553E-15               STORAGE =           0.0000
       CONSTANT HEAD =           0.0000         CONSTANT HEAD =           0.0000
            RECHARGE =          79.9000              RECHARGE =           0.4000

            TOTAL IN =          79.9000              TOTAL IN =           0.4000

          OUT:                                     OUT:
          ----                                     ----
             STORAGE =           4.2918               STORAGE =       6.4047E-13
       CONSTANT HEAD =          75.6081         CONSTANT HEAD =           0.4000
            RECHARGE =           0.0000              RECHARGE =           0.0000

           TOTAL OUT =          79.9000             TOTAL OUT =           0.4000

            IN - OUT =       1.5216E-05              IN - OUT =      -4.9849E-14

 PERCENT DISCREPANCY =           0.00     PERCENT DISCREPANCY =          -0.00






          TIME SUMMARY AT END OF TIME STEP       847 IN STRESS PERIOD         1
                    SECONDS     MINUTES      HOURS       DAYS        YEARS
                    -----------------------------------------------------------
   TIME STEP LENGTH  21600.      360.00      6.0000     0.25000     6.84463E-04
 STRESS PERIOD TIME 1.72584E+07 2.87640E+05  4794.0      199.75     0.54689    
         TOTAL TIME 1.72584E+07 2.87640E+05  4794.0      199.75     0.54689    
1
 -------------------------------------------------------------------------------------
 
 SOLVING FOR HEAD 

 Outer-Iteration  Inner-Iteration  Backtracking  Number of        Incoming       Outgoing      Cutoff     Maximum Head Change      Maximum Head Change
     Number           Count           Flag       Backtracks       Residual       Residual      Residual            Value               Location
        1                             0             0          0.704746E-26     0.704746E-26   -1.00000    
        1                1                                                                                       0.215294E-11                 90           GWF-node number
     1 CALLS TO SPARSE MATRIX SOLVER PACKAGE  IN FLOW TIME STEP     848 STRESS PERIOD       1

 TOTAL OF       1OUTER ITERATIONS
  MAXIMUM CHANGE FOR EACH ITERATION:
   MAX. CHANGE        NODE  MAX. CHANGE        NODE  MAX. CHANGE        NODE  MAX. CHANGE        NODE  MAX. CHANGE        NODE
 ------------------------------------------------------------------------------------------------------------------------------------
   0.21529E-11,         90
 UBUDSVU SAVING "         STORAGE" ON UNIT  50 AT TIME STEP    848, STRESS PERIOD      1
 UBUDSVU SAVING "   CONSTANT HEAD" ON UNIT  50 AT TIME STEP    848, STRESS PERIOD      1
 UBUDSVU SAVING "   FLOW JA FACE " ON UNIT  50 AT TIME STEP    848, STRESS PERIOD      1
 UBUDSVU SAVING "        RECHARGE" ON UNIT  50 AT TIME STEP    848, STRESS PERIOD      1

 HEAD WILL BE SAVED ON UNIT       30 AT END OF TIME STEP      848, STRESS PERIOD        1

 DRAWDOWN WILL BE SAVED ON UNIT   31 AT END OF TIME STEP 848, STRESS PERIOD    1
1
  VOLUMETRIC BUDGET FOR ENTIRE MODEL AT END OF TIME STEP     848 IN STRESS PERIOD       1
  ---------------------------------------------------------------------------------------

     CUMULATIVE VOLUMES      L**3       RATES FOR THIS TIME STEP      L**3/T
     ------------------                 ------------------------

           IN:                                      IN:
           ---                                      ---
             STORAGE =       6.2553E-15               STORAGE =           0.0000
       CONSTANT HEAD =           0.0000         CONSTANT HEAD =           0.0000
            RECHARGE =          80.0000              RECHARGE =           0.4000

            TOTAL IN =          80.0000              TOTAL IN =           0.4000

          OUT:                                     OUT:
          ----                                     ----
             STORAGE =           4.2918               STORAGE =       5.7673E-13
       CONSTANT HEAD =          75.7081         CONSTANT HEAD =           0.4000
            RECHARGE =           0.0000              RECHARGE =           0.0000

           TOTAL OUT =          80.0000             TOTAL OUT =           0.4000

            IN - OUT =       1.5216E-05              IN - OUT =      -2.8422E-14

 PERCENT DISCREPANCY =           0.00     PERCENT DISCREPANCY =          -0.00






          TIME SUMMARY AT END OF TIME STEP       848 IN STRESS PERIOD         1
                    SECONDS     MINUTES      HOURS       DAYS        YEARS
                    -----------------------------------------------------------
   TIME STEP LENGTH  21600.      360.00      6.0000     0.25000     6.84463E-04
 STRESS PERIOD TIME 1.72800E+07 2.88000E+05  4800.0      200.00     0.54757    
         TOTAL TIME 1.72800E+07 2.88000E+05  4800.0      200.00     0.54757    
1

 Run end date and time (yyyy/mm/dd hh:mm:ss): 2023/10/03  8:05:17
 Elapsed run time:  0.623 Seconds

