                                  USG-TRANSPORT USG-TRANSPORT 
       FURTHER  DEVELOPMENTS BASED ON MODFLOW-USG
                      VERSION USG-TRANSPORT VERSION 2.02.0

 LIST FILE: swf1.lst
                         UNIT    7

 OPENING swf1.bas
 FILE TYPE:BAS6   UNIT    1   STATUS:OLD    
 FORMAT:FORMATTED              ACCESS:SEQUENTIAL          

 OPENING swf1.sms
 FILE TYPE:SMS   UNIT   19   STATUS:OLD    
 FORMAT:FORMATTED              ACCESS:SEQUENTIAL          

 OPENING swf1.dis
 FILE TYPE:DISU   UNIT   29   STATUS:OLD    
 FORMAT:FORMATTED              ACCESS:SEQUENTIAL          

 OPENING swf1.oc
 FILE TYPE:OC   UNIT   22   STATUS:OLD    
 FORMAT:FORMATTED              ACCESS:SEQUENTIAL          

 OPENING swf1.swbc
 FILE TYPE:SWBC   UNIT   66   STATUS:OLD    
 FORMAT:FORMATTED              ACCESS:SEQUENTIAL          

 OPENING swf1.rch
 FILE TYPE:RCH   UNIT    2   STATUS:OLD    
 FORMAT:FORMATTED              ACCESS:SEQUENTIAL          

 OPENING swf1.lpf
 FILE TYPE:LPF   UNIT   11   STATUS:OLD    
 FORMAT:FORMATTED              ACCESS:SEQUENTIAL          

 OPENING swf1.swf
 FILE TYPE:SWF   UNIT   65   STATUS:OLD    
 FORMAT:FORMATTED              ACCESS:SEQUENTIAL          

 OPENING swf1.swf.cbb
 FILE TYPE:DATA(BINARY)   UNIT  144   STATUS:UNKNOWN
 FORMAT:UNFORMATTED            ACCESS:STREAM              

 OPENING swf1.swf.hds
 FILE TYPE:DATA(BINARY)   UNIT  145   STATUS:UNKNOWN
 FORMAT:UNFORMATTED            ACCESS:STREAM              

 OPENING swf1.swf.ddn
 FILE TYPE:DATA(BINARY)   UNIT  146   STATUS:UNKNOWN
 FORMAT:UNFORMATTED            ACCESS:STREAM              

 OPENING swf1.gwf.cbb
 FILE TYPE:DATA(BINARY)   UNIT   50   STATUS:UNKNOWN
 FORMAT:UNFORMATTED            ACCESS:STREAM              

 OPENING swf1.gwf.hds
 FILE TYPE:DATA(BINARY)   UNIT   30   STATUS:UNKNOWN
 FORMAT:UNFORMATTED            ACCESS:STREAM              

 OPENING swf1.gwf.ddn
 FILE TYPE:DATA(BINARY)   UNIT   31   STATUS:UNKNOWN
 FORMAT:UNFORMATTED            ACCESS:STREAM              

 BAS -- BASIC PACKAGEUSG-TRANSPORT USG-TRANSPORT VERSION 2.02.0             INPUT READ FROM UNIT    1
 
 # MODFLOW-USGs Basic Package                                                    
 # MODFLOW Data Set Created by Groundwater Vistas                                
 #
 THE FREE FORMAT OPTION HAS BEEN SELECTED
 THE UNSTRUCTURED GRID OPTION HAS BEEN SELECTED

 DIS -- UNSTRUCTURED GRID DISCRETIZATION PACKAGE, VERSION 1 : 5/17/2010 - INPUT READ FROM UNIT   29
        101 NODES         1 NLAY       301 NJAG  VERT. SUBDISCRETIZATION INDEX, IVSD = -1
 INDEX FOR INPUT OF UNSTRUCTURED, FINITE-VOLUME CONNECTIVITY INFORMATION, IDSYMRD =   0
    1 STRESS PERIOD(S) IN SIMULATION
 MODEL TIME UNIT IS SECONDS
 MODEL LENGTH UNIT IS METERS
  Confining bed flag for each layer:
   0

 SWF -- SURFACE WATER FLOW (SWF) DISCRETIZATION PROCESS, VERSION 1, 10/1/2023 INPUT READ FROM UNIT   65



                                 IA
 READING ON UNIT   65 WITH FORMAT: (FREE)              



                                 JA
 READING ON UNIT   65 WITH FORMAT: (FREE)              

 DIS -- UNSTRUCTURED GRID DISCRETIZATION PACKAGE, VERSION 1 : 5/17/2010 - INPUT READ FROM UNIT   29

   NO. OF NODES PER LAYER =       101



                                TOP FOR LAYER   1
 READING ON UNIT   29 WITH FORMAT: (FREE)              



                                BOT FOR LAYER   1
 READING ON UNIT   29 WITH FORMAT: (FREE)              



                               AREA FOR LAYER   1
 READING ON UNIT   29 WITH FORMAT: (FREE)              



                                 IA
 READING ON UNIT   29 WITH FORMAT: (FREE)              



                                 JA
 READING ON UNIT   29 WITH FORMAT: (FREE)              



               CONNECTION LENGTH 12 FOR LAYER   1
 READING ON UNIT   29 WITH FORMAT: (FREE)              



                 PERPENDICULAR AREA
 READING ON UNIT   29 WITH FORMAT: (FREE)              


 STRESS PERIOD     LENGTH       TIME STEPS     MULTIPLIER FOR DELT    SS FLAG
 ----------------------------------------------------------------------------
        1         2420.313      10000                    1.100         TR

 TRANSIENT SIMULATION






                     BOUNDARY ARRAY FOR LAYER   1
 READING ON UNIT    1 WITH FORMAT: (FREE)              

 AQUIFER HEAD WILL BE SET TO   999.00     AT ALL NO-FLOW NODES (IBOUND=0).

             INITIAL HEAD =   100.000     FOR LAYER   1

 ADAPTIVE TIME STEPPING PERFORMED. ATS VARIABLES WILL BE READ.
 -------------------------------------------------------------

          OUTPUT WILL BE PRINTED AT FOLLOWING       1 TIMES
          --------------------------------------------------
   242.3130    

 OUTPUT CONTROL IS SPECIFIED ONLY AT TIME STEPS FOR WHICH OUTPUT IS DESIRED
 HEAD PRINT FORMAT CODE IS   0    DRAWDOWN PRINT FORMAT CODE IS   0
 HEADS WILL BE SAVED ON UNIT   30    DRAWDOWNS WILL BE SAVED ON UNIT   31

 LPF -- LAYER-PROPERTY FLOW PACKAGE, VERSION 7, 5/2/2005
         INPUT READ FROM UNIT   11
 # MODFLOW-USG Layer Property Flow (LPF) Package
 CELL-BY-CELL FLOWS WILL BE SAVED ON UNIT   50
 HEAD AT CELLS THAT CONVERT TO DRY= -1.00000E+30
 No named parameters
 IKCFLAG=0, NODAL INPUT OF HY AND CV
 CONSTANTCV OPTION:
 Constant vertical conductance for convertible layers
 NOVFC OPTION:
 Do not apply the vertical flow correction

   LAYER FLAGS:
 LAYER       LAYTYP        LAYAVG         CHANI        LAYVKA        LAYWET
 ---------------------------------------------------------------------------
    1             4             0     1.000E+00             0             0

   INTERPRETATION OF LAYER FLAGS:
                        INTERBLOCK     HORIZONTAL    DATA IN
         LAYER TYPE   TRANSMISSIVITY   ANISOTROPY   ARRAY VKA   WETTABILITY
 LAYER      (LAYTYP)      (LAYAVG)       (CHANI)      (LAYVKA)      (LAYWET)
 ---------------------------------------------------------------------------
    1     UPSTREAM       HARMONIC     1.000E+00    VERTICAL K  NON-WETTABLE

 WETTING CAPABILITY IS NOT ACTIVE IN ANY LAYER



              HYD. COND. ALONG ROWS FOR LAYER   1
 READING ON UNIT   11 WITH FORMAT: (FREE)              



                VERTICAL HYD. COND. FOR LAYER   1
 READING ON UNIT   11 WITH FORMAT: (FREE)              



                   SPECIFIC STORAGE FOR LAYER   1
 READING ON UNIT   11 WITH FORMAT: (FREE)              



                     SPECIFIC YIELD FOR LAYER   1
 READING ON UNIT   11 WITH FORMAT: (FREE)              

 SWF -- SURFACE DOMAIN FLOW PACKAGE, VERSION 1, 5/17/2010 INPUT READ FROM UNIT   65



                SWF BOUNDARY ARRAY  FOR LAYER   1
 READING ON UNIT   65 WITH FORMAT: (FREE)              



                SWF BOUNDARY ARRAY  FOR LAYER   1
 READING ON UNIT   65 WITH FORMAT: (FREE)              

      SWF BOUNDARY ARRAY  =         1



                  SWF INITIAL HEAD 
 READING ON UNIT   65 WITH FORMAT: (FREE)              

 RCH -- RECHARGE PACKAGE, VERSION 7, 5/2/2005 INPUT READ FROM UNIT    2
 # MODFLOW-USGs Recharge Package
 No named parameters
 CELL-BY-CELL FLOWS WILL BE SAVED ON UNIT   50


     0 Recharge parameters

 SWBC -- SWF BOUNDARY CONDITION - VERSION 1 INPUT READ FROM UNIT   66
 # MODFLOW-USGs Constant-Head Boundary Package (CHD)
 SWBC      1 NODES

 SMS -- SPARSE MATRIX SOLVER PACKAGE, VERSION 7, 5/2/2005
         INPUT READ FROM UNIT 19
 # This file tagged by Modflow-User-Tools version       1.08
 #------------------------------------------------------------------------------------------
 #1b.     HCLOSE   HICLOSE      MXITER    ITER1     IPRSMS  NONLINMETH  LINMETH   Options...
 No named parameters
  ALL SOLVER INPUT DATA WILL BE READ FROM THE SOLVER INPUT FILE. 
 ONLY ACTIVE NODES WILL BE PASSED TO THE SOLVER
 BOTTOM DAMPING APPLIED TO EACH LINEAR SOLUTION
 # HCLOSE—is the head change criterion for convergence of the outer (nonlinear)
 #    iterations, in units of length. When the maximum absolute value of the head
 #    change at all nodes during an iteration is less than or equal to HCLOSE,
 #    iteration stops. Commonly, HCLOSE equals 0.01.
 #
 #HICLOSE—is the head change criterion for convergence of the inner (linear)
 #    iterations, in units of length. When the maximum absolute value of the head
 #    change at all nodes during an iteration is less than or equal to HICLOSE, the
 #    matrix solver assumes convergence. Commonly, HICLOSE is set an order of
 #    magnitude less than HCLOSE.
 #
 #MXITER—is the maximum number of outer (nonlinear) iterations -- that is,
 #    calls to the solution routine. For a linear problem MXITER should be 1.
 #
 #    ITER1—is the maximum number of inner (linear) iterations. The number
 #    typically depends on the characteristics of the matrix solution scheme being
 #    used. For nonlinear problems,
 #
 #    ITER1 usually ranges from 60 to 600; a value of 100 will be sufficient for
 #    most linear problems.
 #
 #IPRSMS—is a flag that controls printing of convergence information from the solver:
 #    0 – print nothing
 #    1 – print only the total number of iterations and nonlinear residual reduction summaries
 #    2 – print matrix solver information in addition to above
 #
 #NONLINMETH—is a flag that controls the nonlinear solution method and under-relaxation schemes
 #
 #    0 – Picard iteration scheme is used without any under-relaxation schemes involved
 #
 #    > 0 – Newton-Raphson iteration scheme is used with under-relaxation. Note
 #    that the Newton-Raphson linearization scheme is available only for the
 #    upstream weighted solution scheme of the BCF and LPF packages.
 #
 #    < 0 – Picard iteration scheme is used with under-relaxation.
 #
 #    The absolute value of NONLINMETH determines the underrelaxation scheme used.
 #    1 or -1 – Delta-Bar-Delta under-relaxation is used.
 #    2 or -2 – Cooley under-relaxation scheme is used.
 #
 #    Note that the under-relaxation schemes are used in conjunction with
 #    gradient based methods, however, experience has indicated that the Cooley
 #    under-relaxation and damping work well also for the Picard scheme with
 #    the wet/dry options of MODFLOW.
 #
 #LINMETH—is a flag that controls the matrix solution method
 #    1 – the χMD solver of Ibaraki (2005) is used.
 #    2 – the unstructured pre-conditioned conjugate gradient solver of White
 #    and Hughes (2011) is used.
 #
 #----------------------------------------------------------------------------------------
 #2.    THETA     AKAPPA      GAMMA     AMOMENTUM    NUMTRACK  BTOL      BREDUC     RESLIM
 OUTER ITERATION CONVERGENCE CRITERION (HCLOSE) =    0.100000E-02
 INNER ITERATION CONVERGENCE CRITERION (HICLOSE) =    0.100000E-04
 MAXIMUM NUMBER OF OUTER ITERATIONS (MXITER)     =       250
 MAXIMUM NUMBER OF INNER ITERATIONS (ITER1)      =       600
 SOLVER PRINTOUT INDEX             (IPRSMS)      =         1
 NONLINEAR ITERATION METHOD    (NONLINMETH)      =         1
 LINEAR SOLUTION METHOD           (LINMETH)      =         1
 D-B-D WEIGHT REDUCTION FACTOR      (THETA)      =    0.700000E+00
 D-B-D WEIGHT INCREASE INCREMENT    (KAPPA)      =    0.100000E+00
 D-B-D PREVIOUS HISTORY FACTOR      (GAMMA)      =    0.100000E+00
 MOMENTUM TERM                  (AMOMENTUM)      =    0.000000E+00
 MAXIMUM NUMBER OF BACKTRACKS    (NUMTRACK)      =       200
 BACKTRACKING TOLERANCE FACTOR       (BTOL)      =    0.100000E+01
 BACKTRACKING REDUCTION FACTOR     (BREDUC)      =    0.200000E+00
 BACKTRACKING RESIDUAL LIMIT      (RES_LIM)      =    0.100000E+01
 TRUNCATED NEWTON FLAG     (ITRUNCNEWTON)      =         0
 ***Newton Linearization will be used***
 
 ***XMD linear solver will be used***
 XMD -- LINEAR SOLUTION BY XMD PACKAGE VERSION 1.30
     BY MOTOMU IBARAKI, OHIO STATE UNIVERSITY, COLOMBUS, OH
                 INPUT READ FROM UNIT 19
 #THETA—is the reduction factor for the learning rate (under-relaxation term)
 #    of the delta-bar-delta algorithm. The value of THETA is between zero and one.
 #    If the change in the variable (head) is of opposite sign to that of the
 #    previous iteration, the under-relaxation term is reduced by a factor of
 #    THETA. The value usually ranges from 0.3 to 0.9; a value of 0.7 works well
 #    for most problems.
 #
 #AKAPPA—is the increment for the learning rate (under-relaxation term) of the
 #    delta-bar-delta algorithm. The value of AKAPPA is between zero and one. If
 #    the change in the variable (head) is of the same sign to that of the previous
 #    iteration, the under-relaxation term is increased by an increment of AKAPPA.
 #    The value usually ranges from 0.03 to 0.3; a value of 0.1 works well for most
 #    problems.
 #
 #GAMMA—is the history or memory term factor of the delta-bar-delta algorithm.
 #    Gamma is between zero and 1 but cannot be equal to one. When GAMMA is zero,
 #    only the most recent history (previous iteration value) is maintained. As
 #    GAMMA is increased, past history of iteration changes has greater influence
 #    on the memory term. The memory term is maintained as an exponential average
 #    of past changes. Retaining some past history can overcome granular behavior
 #    in the calculated function surface and therefore helps to overcome cyclic
 #    patterns of non-convergence. The value usually ranges from 0.1 to 0.3; a
 #    value of 0.2 works well for most problems.
 #
 #AMOMENTUM—is the fraction of past history changes that is added as a momentum
 #    term to the step change for a nonlinear iteration. The value of AMOMENTUM is
 #    between zero and one. A large momentum term should only be used when small
 #    learning rates are expected. Small amounts of the momentum term help
 #    convergence. The value usually ranges from 0.0001 to 0.1; a value of 0.001
 #    works well for most problems.
 #
 #NUMTRACK—is the maximum number of backtracking iterations allowed for
 #    residual reduction computations. If NUMTRACK = 0 then the backtracking
 #    iterations are omitted. The value usually ranges from 2 to 20; a value of 10
 #    works well for most problems.
 #
 #BTOL—is the tolerance for residual change that is allowed for residual
 #    reduction computations. BTOL should not be less than one to avoid getting
 #    stuck in local minima. A large value serves to check for extreme residual
 #    increases, while a low value serves to control step size more severely. The
 #    value usually ranges from 1.0 to 106; a value of 104 works well for most
 #    problems but lower values like 1.1 may be required for harder problems.
 #
 #BREDUC—is the reduction in step size used for residual reduction
 #    computations. The value of BREDUC is between zero and one. The value usually
 #    ranges from 0.1 to 0.3; a value of 0.2 works well for most problems.
 #
 #RESLIM—is the limit to which the residual is reduced with backtracking. If
 #    the residual is smaller than RESLIM, then further backtracking is not
 #    performed. A value of 100 is suitable for large problems and residual
 #    reduction to smaller values may only slow down computations.
 #
 #------------------------------------------------------------------------------------------
 #For the χMD solver (Ibaraki, 2005):
 #3.         IACL      NORDER     LEVEL      NORTH     IREDSYS RRCTOL        IDROPTOL  EPSRN
 ACCELERATION METHOD                    (IACL) =         2
 EQUATION ORDERING FLAG               (NORDER) =         0
 LEVEL OF FILL                         (LEVEL) =        20
 MAXIMUM NUMBER OF ORTHOGONALIZATIONS  (NORTH) =        25
 INDEX FOR USING REDUCED SYSTEM      (IREDSYS) =         0
 RESID. REDUCTION CONVERGE CRITERION  (RRCTOL) =  0.000000E+00
 INDEX FOR USING DROP TOLERANCE     (IDROPTOL) =         1
 DROP TOLERANCE VALUE                 ((EPSRN) =  0.100000E-03
 

 OUTPUT CONTROL FOR STRESS PERIOD        1
    DELTAT   0.100000E-02
    TMINAT   0.100000E-05
    TMAXAT    5.00000    
    TADJAT    1.10000    
    TCUTAT    2.00000    
    SAVE HEAD FOR ALL LAYERS
    PRINT HEAD FOR ALL LAYERS
    SAVE DRAWDOWN FOR ALL LAYERS
    SAVE BUDGET
    PRINT BUDGET
1
                            STRESS PERIOD NO.    1, LENGTH =   2420.313    
                            -----------------------------------------------

                            INITIAL TIME STEP SIZE =  0.1000000E-02

 RCH -- RECHARGE PACKAGE, VERSION 7, 5/2/2005 INPUT READ FROM UNIT    2



                           RECHARGE
 READING ON UNIT    2 WITH FORMAT: (FREE)              

 SWBC -- SWF BOUNDARY CONDITION - VERSION 1 INPUT READ FROM UNIT   66

      1 SWBCS
 -------------------------------------------------------------------------------------
 
 SOLVING FOR HEAD 

 Outer-Iteration  Inner-Iteration  Backtracking  Number of        Incoming       Outgoing      Cutoff     Maximum Head Change      Maximum Head Change
     Number           Count           Flag       Backtracks       Residual       Residual      Residual            Value               Location
        1                             0             0          0.161600E-02     0.161600E-02   -1.00000    
        1                2                                                                                        0.00000                      1           GWF-node number
        1                2                                                                                       0.800000E-03                100           SWF-node number


     1 CALLS TO SPARSE MATRIX SOLVER PACKAGE  IN FLOW TIME STEP       1 STRESS PERIOD       1

 TOTAL OF       1OUTER ITERATIONS
  MAXIMUM CHANGE FOR EACH ITERATION:
   MAX. CHANGE        NODE  MAX. CHANGE        NODE  MAX. CHANGE        NODE  MAX. CHANGE        NODE  MAX. CHANGE        NODE
 ------------------------------------------------------------------------------------------------------------------------------------
    0.0000    ,          1
1
  VOLUMETRIC BUDGET FOR ENTIRE MODEL AT END OF TIME STEP       1 IN STRESS PERIOD       1
  ---------------------------------------------------------------------------------------

     CUMULATIVE VOLUMES      L**3       RATES FOR THIS TIME STEP      L**3/T
     ------------------                 ------------------------

           IN:                                      IN:
           ---                                      ---
             STORAGE =           0.0000               STORAGE =           0.0000
         SWF STORAGE =           0.0000           SWF STORAGE =           0.0000
       CONSTANT HEAD =           0.0000         CONSTANT HEAD =           0.0000
      SWF CONST HEAD =           0.0000        SWF CONST HEAD =           0.0000
            RECHARGE =       4.0400E-04              RECHARGE =           0.4040
                SWBC =           0.0000                  SWBC =           0.0000

            TOTAL IN =       4.0400E-04              TOTAL IN =           0.4040

          OUT:                                     OUT:
          ----                                     ----
             STORAGE =           0.0000               STORAGE =           0.0000
         SWF STORAGE =       3.2315E-04           SWF STORAGE =           0.3232
       CONSTANT HEAD =           0.0000         CONSTANT HEAD =           0.0000
      SWF CONST HEAD =           0.0000        SWF CONST HEAD =           0.0000
            RECHARGE =           0.0000              RECHARGE =           0.0000
                SWBC =           0.0000                  SWBC =           0.0000

           TOTAL OUT =       3.2315E-04             TOTAL OUT =           0.3232

            IN - OUT =       8.0846E-05              IN - OUT =       8.0846E-02

 PERCENT DISCREPANCY =          22.24     PERCENT DISCREPANCY =          22.24






          TIME SUMMARY AT END OF TIME STEP         1 IN STRESS PERIOD         1
                    SECONDS     MINUTES      HOURS       DAYS        YEARS
                    -----------------------------------------------------------
   TIME STEP LENGTH 1.00000E-03 1.66667E-05 2.77778E-07 1.15741E-08 3.16881E-11
 STRESS PERIOD TIME 1.00000E-03 1.66667E-05 2.77778E-07 1.15741E-08 3.16881E-11
         TOTAL TIME 1.00000E-03 1.66667E-05 2.77778E-07 1.15741E-08 3.16881E-11
1
 -------------------------------------------------------------------------------------
 
 SOLVING FOR HEAD 

 Outer-Iteration  Inner-Iteration  Backtracking  Number of        Incoming       Outgoing      Cutoff     Maximum Head Change      Maximum Head Change
     Number           Count           Flag       Backtracks       Residual       Residual      Residual            Value               Location
        1                             0             0          0.120292E-03     0.120292E-03   -1.00000    
        1                2                                                                                        0.00000                      1           GWF-node number
        1                2                                                                                       0.975138E-04                101           SWF-node number
     1 CALLS TO SPARSE MATRIX SOLVER PACKAGE  IN FLOW TIME STEP       2 STRESS PERIOD       1

 TOTAL OF       1OUTER ITERATIONS
  MAXIMUM CHANGE FOR EACH ITERATION:
   MAX. CHANGE        NODE  MAX. CHANGE        NODE  MAX. CHANGE        NODE  MAX. CHANGE        NODE  MAX. CHANGE        NODE
 ------------------------------------------------------------------------------------------------------------------------------------
    0.0000    ,          1
1
  VOLUMETRIC BUDGET FOR ENTIRE MODEL AT END OF TIME STEP       2 IN STRESS PERIOD       1
  ---------------------------------------------------------------------------------------

     CUMULATIVE VOLUMES      L**3       RATES FOR THIS TIME STEP      L**3/T
     ------------------                 ------------------------

           IN:                                      IN:
           ---                                      ---
             STORAGE =           0.0000               STORAGE =           0.0000
         SWF STORAGE =           0.0000           SWF STORAGE =           0.0000
       CONSTANT HEAD =           0.0000         CONSTANT HEAD =           0.0000
      SWF CONST HEAD =           0.0000        SWF CONST HEAD =           0.0000
            RECHARGE =       8.4840E-04              RECHARGE =           0.4040
                SWBC =           0.0000                  SWBC =           0.0000

            TOTAL IN =       8.4840E-04              TOTAL IN =           0.4040

          OUT:                                     OUT:
          ----                                     ----
             STORAGE =           0.0000               STORAGE =           0.0000
         SWF STORAGE =       7.2523E-04           SWF STORAGE =           0.3655
       CONSTANT HEAD =           0.0000         CONSTANT HEAD =           0.0000
      SWF CONST HEAD =           0.0000        SWF CONST HEAD =           0.0000
            RECHARGE =           0.0000              RECHARGE =           0.0000
                SWBC =           0.0000                  SWBC =           0.0000

           TOTAL OUT =       7.2523E-04             TOTAL OUT =           0.3655

            IN - OUT =       1.2317E-04              IN - OUT =       3.8480E-02

 PERCENT DISCREPANCY =          15.65     PERCENT DISCREPANCY =          10.00






          TIME SUMMARY AT END OF TIME STEP         2 IN STRESS PERIOD         1
                    SECONDS     MINUTES      HOURS       DAYS        YEARS
                    -----------------------------------------------------------
   TIME STEP LENGTH 1.10000E-03 1.83333E-05 3.05556E-07 1.27315E-08 3.48569E-11
 STRESS PERIOD TIME 2.10000E-03 3.50000E-05 5.83333E-07 2.43056E-08 6.65450E-11
         TOTAL TIME 2.10000E-03 3.50000E-05 5.83333E-07 2.43056E-08 6.65450E-11
1
 -------------------------------------------------------------------------------------
 
 SOLVING FOR HEAD 

 Outer-Iteration  Inner-Iteration  Backtracking  Number of        Incoming       Outgoing      Cutoff     Maximum Head Change      Maximum Head Change
     Number           Count           Flag       Backtracks       Residual       Residual      Residual            Value               Location
        1                             0             0          0.113635E-02     0.113635E-02   -1.00000    
        1                2                                                                                        0.00000                      1           GWF-node number
        1                2                                                                                       0.291526E-03                 99           SWF-node number
     1 CALLS TO SPARSE MATRIX SOLVER PACKAGE  IN FLOW TIME STEP       3 STRESS PERIOD       1

 TOTAL OF       1OUTER ITERATIONS
  MAXIMUM CHANGE FOR EACH ITERATION:
   MAX. CHANGE        NODE  MAX. CHANGE        NODE  MAX. CHANGE        NODE  MAX. CHANGE        NODE  MAX. CHANGE        NODE
 ------------------------------------------------------------------------------------------------------------------------------------
    0.0000    ,          1
1
  VOLUMETRIC BUDGET FOR ENTIRE MODEL AT END OF TIME STEP       3 IN STRESS PERIOD       1
  ---------------------------------------------------------------------------------------

     CUMULATIVE VOLUMES      L**3       RATES FOR THIS TIME STEP      L**3/T
     ------------------                 ------------------------

           IN:                                      IN:
           ---                                      ---
             STORAGE =           0.0000               STORAGE =           0.0000
         SWF STORAGE =           0.0000           SWF STORAGE =           0.0000
       CONSTANT HEAD =           0.0000         CONSTANT HEAD =           0.0000
      SWF CONST HEAD =           0.0000        SWF CONST HEAD =           0.0000
            RECHARGE =       1.3372E-03              RECHARGE =           0.4040
                SWBC =           0.0000                  SWBC =           0.0000

            TOTAL IN =       1.3372E-03              TOTAL IN =           0.4040

          OUT:                                     OUT:
          ----                                     ----
             STORAGE =           0.0000               STORAGE =           0.0000
         SWF STORAGE =       1.1098E-03           SWF STORAGE =           0.3178
       CONSTANT HEAD =           0.0000         CONSTANT HEAD =           0.0000
      SWF CONST HEAD =           0.0000        SWF CONST HEAD =           0.0000
            RECHARGE =           0.0000              RECHARGE =           0.0000
                SWBC =           0.0000                  SWBC =           0.0000

           TOTAL OUT =       1.1098E-03             TOTAL OUT =           0.3178

            IN - OUT =       2.2747E-04              IN - OUT =       8.6197E-02

 PERCENT DISCREPANCY =          18.59     PERCENT DISCREPANCY =          23.88






          TIME SUMMARY AT END OF TIME STEP         3 IN STRESS PERIOD         1
                    SECONDS     MINUTES      HOURS       DAYS        YEARS
                    -----------------------------------------------------------
   TIME STEP LENGTH 1.21000E-03 2.01667E-05 3.36111E-07 1.40046E-08 3.83426E-11
 STRESS PERIOD TIME 3.31000E-03 5.51667E-05 9.19445E-07 3.83102E-08 1.04888E-10
         TOTAL TIME 3.31000E-03 5.51667E-05 9.19445E-07 3.83102E-08 1.04888E-10
1
 -------------------------------------------------------------------------------------
 
 SOLVING FOR HEAD 

 Outer-Iteration  Inner-Iteration  Backtracking  Number of        Incoming       Outgoing      Cutoff     Maximum Head Change      Maximum Head Change
     Number           Count           Flag       Backtracks       Residual       Residual      Residual            Value               Location
        1                             0             0          0.301074E-03     0.301074E-03   -1.00000    
        1                2                                                                                        0.00000                      1           GWF-node number
        1                2                                                                                       0.139505E-03                101           SWF-node number
     1 CALLS TO SPARSE MATRIX SOLVER PACKAGE  IN FLOW TIME STEP       4 STRESS PERIOD       1

 TOTAL OF       1OUTER ITERATIONS
  MAXIMUM CHANGE FOR EACH ITERATION:
   MAX. CHANGE        NODE  MAX. CHANGE        NODE  MAX. CHANGE        NODE  MAX. CHANGE        NODE  MAX. CHANGE        NODE
 ------------------------------------------------------------------------------------------------------------------------------------
    0.0000    ,          1
1
  VOLUMETRIC BUDGET FOR ENTIRE MODEL AT END OF TIME STEP       4 IN STRESS PERIOD       1
  ---------------------------------------------------------------------------------------

     CUMULATIVE VOLUMES      L**3       RATES FOR THIS TIME STEP      L**3/T
     ------------------                 ------------------------

           IN:                                      IN:
           ---                                      ---
             STORAGE =           0.0000               STORAGE =           0.0000
         SWF STORAGE =           0.0000           SWF STORAGE =           0.0000
       CONSTANT HEAD =           0.0000         CONSTANT HEAD =           0.0000
      SWF CONST HEAD =           0.0000        SWF CONST HEAD =           0.0000
            RECHARGE =       1.8750E-03              RECHARGE =           0.4040
                SWBC =           0.0000                  SWBC =           0.0000

            TOTAL IN =       1.8750E-03              TOTAL IN =           0.4040

          OUT:                                     OUT:
          ----                                     ----
             STORAGE =           0.0000               STORAGE =           0.0000
         SWF STORAGE =       1.5880E-03           SWF STORAGE =           0.3593
       CONSTANT HEAD =           0.0000         CONSTANT HEAD =           0.0000
      SWF CONST HEAD =           0.0000        SWF CONST HEAD =           0.0000
            RECHARGE =           0.0000              RECHARGE =           0.0000
                SWBC =           0.0000                  SWBC =           0.0000

           TOTAL OUT =       1.5880E-03             TOTAL OUT =           0.3593

            IN - OUT =       2.8699E-04              IN - OUT =       4.4715E-02

 PERCENT DISCREPANCY =          16.57     PERCENT DISCREPANCY =          11.72






          TIME SUMMARY AT END OF TIME STEP         4 IN STRESS PERIOD         1
                    SECONDS     MINUTES      HOURS       DAYS        YEARS
                    -----------------------------------------------------------
   TIME STEP LENGTH 1.33100E-03 2.21833E-05 3.69722E-07 1.54051E-08 4.21768E-11
 STRESS PERIOD TIME 4.64100E-03 7.73500E-05 1.28917E-06 5.37153E-08 1.47064E-10
         TOTAL TIME 4.64100E-03 7.73500E-05 1.28917E-06 5.37153E-08 1.47064E-10
1
 -------------------------------------------------------------------------------------
 
 SOLVING FOR HEAD 

 Outer-Iteration  Inner-Iteration  Backtracking  Number of        Incoming       Outgoing      Cutoff     Maximum Head Change      Maximum Head Change
     Number           Count           Flag       Backtracks       Residual       Residual      Residual            Value               Location
        1                             0             0          0.810555E-03     0.810555E-03   -1.00000    
        1                2                                                                                        0.00000                      1           GWF-node number
        1                2                                                                                       0.228535E-03                101           SWF-node number
     1 CALLS TO SPARSE MATRIX SOLVER PACKAGE  IN FLOW TIME STEP       5 STRESS PERIOD       1

 TOTAL OF       1OUTER ITERATIONS
  MAXIMUM CHANGE FOR EACH ITERATION:
   MAX. CHANGE        NODE  MAX. CHANGE        NODE  MAX. CHANGE        NODE  MAX. CHANGE        NODE  MAX. CHANGE        NODE
 ------------------------------------------------------------------------------------------------------------------------------------
    0.0000    ,          1
1
  VOLUMETRIC BUDGET FOR ENTIRE MODEL AT END OF TIME STEP       5 IN STRESS PERIOD       1
  ---------------------------------------------------------------------------------------

     CUMULATIVE VOLUMES      L**3       RATES FOR THIS TIME STEP      L**3/T
     ------------------                 ------------------------

           IN:                                      IN:
           ---                                      ---
             STORAGE =           0.0000               STORAGE =           0.0000
         SWF STORAGE =           0.0000           SWF STORAGE =           0.0000
       CONSTANT HEAD =           0.0000         CONSTANT HEAD =           0.0000
      SWF CONST HEAD =           0.0000        SWF CONST HEAD =           0.0000
            RECHARGE =       2.4665E-03              RECHARGE =           0.4040
                SWBC =           0.0000                  SWBC =           0.0000

            TOTAL IN =       2.4665E-03              TOTAL IN =           0.4040

          OUT:                                     OUT:
          ----                                     ----
             STORAGE =           0.0000               STORAGE =           0.0000
         SWF STORAGE =       2.0906E-03           SWF STORAGE =           0.3433
       CONSTANT HEAD =           0.0000         CONSTANT HEAD =           0.0000
      SWF CONST HEAD =           0.0000        SWF CONST HEAD =           0.0000
            RECHARGE =           0.0000              RECHARGE =           0.0000
                SWBC =           0.0000                  SWBC =           0.0000

           TOTAL OUT =       2.0906E-03             TOTAL OUT =           0.3433

            IN - OUT =       3.7584E-04              IN - OUT =       6.0685E-02

 PERCENT DISCREPANCY =          16.49     PERCENT DISCREPANCY =          16.24






          TIME SUMMARY AT END OF TIME STEP         5 IN STRESS PERIOD         1
                    SECONDS     MINUTES      HOURS       DAYS        YEARS
                    -----------------------------------------------------------
   TIME STEP LENGTH 1.46410E-03 2.44017E-05 4.06695E-07 1.69456E-08 4.63945E-11
 STRESS PERIOD TIME 6.10510E-03 1.01752E-04 1.69586E-06 7.06609E-08 1.93459E-10
         TOTAL TIME 6.10510E-03 1.01752E-04 1.69586E-06 7.06609E-08 1.93459E-10
1
 -------------------------------------------------------------------------------------
 
 SOLVING FOR HEAD 

 Outer-Iteration  Inner-Iteration  Backtracking  Number of        Incoming       Outgoing      Cutoff     Maximum Head Change      Maximum Head Change
     Number           Count           Flag       Backtracks       Residual       Residual      Residual            Value               Location
        1                             0             0          0.392315E-03     0.392315E-03   -1.00000    
        1                2                                                                                        0.00000                      1           GWF-node number
        1                2                                                                                       0.157543E-03                101           SWF-node number
     1 CALLS TO SPARSE MATRIX SOLVER PACKAGE  IN FLOW TIME STEP       6 STRESS PERIOD       1

 TOTAL OF       1OUTER ITERATIONS
  MAXIMUM CHANGE FOR EACH ITERATION:
   MAX. CHANGE        NODE  MAX. CHANGE        NODE  MAX. CHANGE        NODE  MAX. CHANGE        NODE  MAX. CHANGE        NODE
 ------------------------------------------------------------------------------------------------------------------------------------
    0.0000    ,          1
1
  VOLUMETRIC BUDGET FOR ENTIRE MODEL AT END OF TIME STEP       6 IN STRESS PERIOD       1
  ---------------------------------------------------------------------------------------

     CUMULATIVE VOLUMES      L**3       RATES FOR THIS TIME STEP      L**3/T
     ------------------                 ------------------------

           IN:                                      IN:
           ---                                      ---
             STORAGE =           0.0000               STORAGE =           0.0000
         SWF STORAGE =           0.0000           SWF STORAGE =           0.0000
       CONSTANT HEAD =           0.0000         CONSTANT HEAD =           0.0000
      SWF CONST HEAD =           0.0000        SWF CONST HEAD =           0.0000
            RECHARGE =       3.1171E-03              RECHARGE =           0.4040
                SWBC =           0.0000                  SWBC =           0.0000

            TOTAL IN =       3.1171E-03              TOTAL IN =           0.4040

          OUT:                                     OUT:
          ----                                     ----
             STORAGE =           0.0000               STORAGE =           0.0000
         SWF STORAGE =       2.6751E-03           SWF STORAGE =           0.3629
       CONSTANT HEAD =           0.0000         CONSTANT HEAD =           0.0000
      SWF CONST HEAD =           0.0000        SWF CONST HEAD =           0.0000
            RECHARGE =           0.0000              RECHARGE =           0.0000
                SWBC =           0.0000                  SWBC =           0.0000

           TOTAL OUT =       2.6751E-03             TOTAL OUT =           0.3629

            IN - OUT =       4.4197E-04              IN - OUT =       4.1064E-02

 PERCENT DISCREPANCY =          15.26     PERCENT DISCREPANCY =          10.71






          TIME SUMMARY AT END OF TIME STEP         6 IN STRESS PERIOD         1
                    SECONDS     MINUTES      HOURS       DAYS        YEARS
                    -----------------------------------------------------------
   TIME STEP LENGTH 1.61051E-03 2.68418E-05 4.47364E-07 1.86402E-08 5.10340E-11
 STRESS PERIOD TIME 7.71561E-03 1.28594E-04 2.14323E-06 8.93010E-08 2.44493E-10
         TOTAL TIME 7.71561E-03 1.28594E-04 2.14323E-06 8.93010E-08 2.44493E-10
1
 -------------------------------------------------------------------------------------
 
 SOLVING FOR HEAD 

 Outer-Iteration  Inner-Iteration  Backtracking  Number of        Incoming       Outgoing      Cutoff     Maximum Head Change      Maximum Head Change
     Number           Count           Flag       Backtracks       Residual       Residual      Residual            Value               Location
        1                             0             0          0.671213E-03     0.671213E-03   -1.00000    
        1                2                                                                                        0.00000                      1           GWF-node number
        1                2                                                                                       0.208942E-03                101           SWF-node number
     1 CALLS TO SPARSE MATRIX SOLVER PACKAGE  IN FLOW TIME STEP       7 STRESS PERIOD       1

 TOTAL OF       1OUTER ITERATIONS
  MAXIMUM CHANGE FOR EACH ITERATION:
   MAX. CHANGE        NODE  MAX. CHANGE        NODE  MAX. CHANGE        NODE  MAX. CHANGE        NODE  MAX. CHANGE        NODE
 ------------------------------------------------------------------------------------------------------------------------------------
    0.0000    ,          1
1
  VOLUMETRIC BUDGET FOR ENTIRE MODEL AT END OF TIME STEP       7 IN STRESS PERIOD       1
  ---------------------------------------------------------------------------------------

     CUMULATIVE VOLUMES      L**3       RATES FOR THIS TIME STEP      L**3/T
     ------------------                 ------------------------

           IN:                                      IN:
           ---                                      ---
             STORAGE =           0.0000               STORAGE =           0.0000
         SWF STORAGE =           0.0000           SWF STORAGE =           0.0000
       CONSTANT HEAD =           0.0000         CONSTANT HEAD =           0.0000
      SWF CONST HEAD =           0.0000        SWF CONST HEAD =           0.0000
            RECHARGE =       3.8328E-03              RECHARGE =           0.4040
                SWBC =           0.0000                  SWBC =           0.0000

            TOTAL IN =       3.8328E-03              TOTAL IN =           0.4040

          OUT:                                     OUT:
          ----                                     ----
             STORAGE =           0.0000               STORAGE =           0.0000
         SWF STORAGE =       3.3079E-03           SWF STORAGE =           0.3572
       CONSTANT HEAD =           0.0000         CONSTANT HEAD =           0.0000
      SWF CONST HEAD =           0.0000        SWF CONST HEAD =           0.0000
            RECHARGE =           0.0000              RECHARGE =           0.0000
                SWBC =           0.0000                  SWBC =           0.0000

           TOTAL OUT =       3.3079E-03             TOTAL OUT =           0.3572

            IN - OUT =       5.2495E-04              IN - OUT =       4.6842E-02

 PERCENT DISCREPANCY =          14.70     PERCENT DISCREPANCY =          12.31






          TIME SUMMARY AT END OF TIME STEP         7 IN STRESS PERIOD         1
                    SECONDS     MINUTES      HOURS       DAYS        YEARS
                    -----------------------------------------------------------
   TIME STEP LENGTH 1.77156E-03 2.95260E-05 4.92100E-07 2.05042E-08 5.61374E-11
 STRESS PERIOD TIME 9.48717E-03 1.58120E-04 2.63533E-06 1.09805E-07 3.00630E-10
         TOTAL TIME 9.48717E-03 1.58120E-04 2.63533E-06 1.09805E-07 3.00630E-10
1
 -------------------------------------------------------------------------------------
 
 SOLVING FOR HEAD 

 Outer-Iteration  Inner-Iteration  Backtracking  Number of        Incoming       Outgoing      Cutoff     Maximum Head Change      Maximum Head Change
     Number           Count           Flag       Backtracks       Residual       Residual      Residual            Value               Location
        1                             0             0          0.436153E-03     0.436153E-03   -1.00000    
        1                2                                                                                        0.00000                      1           GWF-node number
        1                2                                                                                       0.170762E-03                101           SWF-node number
     1 CALLS TO SPARSE MATRIX SOLVER PACKAGE  IN FLOW TIME STEP       8 STRESS PERIOD       1

 TOTAL OF       1OUTER ITERATIONS
  MAXIMUM CHANGE FOR EACH ITERATION:
   MAX. CHANGE        NODE  MAX. CHANGE        NODE  MAX. CHANGE        NODE  MAX. CHANGE        NODE  MAX. CHANGE        NODE
 ------------------------------------------------------------------------------------------------------------------------------------
    0.0000    ,          1
1
  VOLUMETRIC BUDGET FOR ENTIRE MODEL AT END OF TIME STEP       8 IN STRESS PERIOD       1
  ---------------------------------------------------------------------------------------

     CUMULATIVE VOLUMES      L**3       RATES FOR THIS TIME STEP      L**3/T
     ------------------                 ------------------------

           IN:                                      IN:
           ---                                      ---
             STORAGE =           0.0000               STORAGE =           0.0000
         SWF STORAGE =           0.0000           SWF STORAGE =           0.0000
       CONSTANT HEAD =           0.0000         CONSTANT HEAD =           0.0000
      SWF CONST HEAD =           0.0000        SWF CONST HEAD =           0.0000
            RECHARGE =       4.6201E-03              RECHARGE =           0.4040
                SWBC =           0.0000                  SWBC =           0.0000

            TOTAL IN =       4.6201E-03              TOTAL IN =           0.4040

          OUT:                                     OUT:
          ----                                     ----
             STORAGE =           0.0000               STORAGE =           0.0000
         SWF STORAGE =       4.0246E-03           SWF STORAGE =           0.3678
       CONSTANT HEAD =           0.0000         CONSTANT HEAD =           0.0000
      SWF CONST HEAD =           0.0000        SWF CONST HEAD =           0.0000
            RECHARGE =           0.0000              RECHARGE =           0.0000
                SWBC =           0.0000                  SWBC =           0.0000

           TOTAL OUT =       4.0246E-03             TOTAL OUT =           0.3678

            IN - OUT =       5.9554E-04              IN - OUT =       3.6223E-02

 PERCENT DISCREPANCY =          13.78     PERCENT DISCREPANCY =           9.39






          TIME SUMMARY AT END OF TIME STEP         8 IN STRESS PERIOD         1
                    SECONDS     MINUTES      HOURS       DAYS        YEARS
                    -----------------------------------------------------------
   TIME STEP LENGTH 1.94872E-03 3.24786E-05 5.41310E-07 2.25546E-08 6.17511E-11
 STRESS PERIOD TIME 1.14359E-02 1.90598E-04 3.17664E-06 1.32360E-07 3.62381E-10
         TOTAL TIME 1.14359E-02 1.90598E-04 3.17664E-06 1.32360E-07 3.62381E-10
1
 -------------------------------------------------------------------------------------
 
 SOLVING FOR HEAD 

 Outer-Iteration  Inner-Iteration  Backtracking  Number of        Incoming       Outgoing      Cutoff     Maximum Head Change      Maximum Head Change
     Number           Count           Flag       Backtracks       Residual       Residual      Residual            Value               Location
        1                             0             0          0.599785E-03     0.599785E-03   -1.00000    
        1                2                                                                                        0.00000                      1           GWF-node number
        1                2                                                                                       0.205142E-03                101           SWF-node number
     1 CALLS TO SPARSE MATRIX SOLVER PACKAGE  IN FLOW TIME STEP       9 STRESS PERIOD       1

 TOTAL OF       1OUTER ITERATIONS
  MAXIMUM CHANGE FOR EACH ITERATION:
   MAX. CHANGE        NODE  MAX. CHANGE        NODE  MAX. CHANGE        NODE  MAX. CHANGE        NODE  MAX. CHANGE        NODE
 ------------------------------------------------------------------------------------------------------------------------------------
    0.0000    ,          1
1
  VOLUMETRIC BUDGET FOR ENTIRE MODEL AT END OF TIME STEP       9 IN STRESS PERIOD       1
  ---------------------------------------------------------------------------------------

     CUMULATIVE VOLUMES      L**3       RATES FOR THIS TIME STEP      L**3/T
     ------------------                 ------------------------

           IN:                                      IN:
           ---                                      ---
             STORAGE =           0.0000               STORAGE =           0.0000
         SWF STORAGE =           0.0000           SWF STORAGE =           0.0000
       CONSTANT HEAD =           0.0000         CONSTANT HEAD =           0.0000
      SWF CONST HEAD =           0.0000        SWF CONST HEAD =           0.0000
            RECHARGE =       5.4861E-03              RECHARGE =           0.4040
                SWBC =           0.0000                  SWBC =           0.0000

            TOTAL IN =       5.4861E-03              TOTAL IN =           0.4040

          OUT:                                     OUT:
          ----                                     ----
             STORAGE =           0.0000               STORAGE =           0.0000
         SWF STORAGE =       4.8090E-03           SWF STORAGE =           0.3659
       CONSTANT HEAD =           0.0000         CONSTANT HEAD =           0.0000
      SWF CONST HEAD =           0.0000        SWF CONST HEAD =           0.0000
            RECHARGE =           0.0000              RECHARGE =           0.0000
                SWBC =           0.0000                  SWBC =           0.0000

           TOTAL OUT =       4.8090E-03             TOTAL OUT =           0.3659

            IN - OUT =       6.7712E-04              IN - OUT =       3.8059E-02

 PERCENT DISCREPANCY =          13.15     PERCENT DISCREPANCY =           9.89






          TIME SUMMARY AT END OF TIME STEP         9 IN STRESS PERIOD         1
                    SECONDS     MINUTES      HOURS       DAYS        YEARS
                    -----------------------------------------------------------
   TIME STEP LENGTH 2.14359E-03 3.57265E-05 5.95441E-07 2.48101E-08 6.79262E-11
 STRESS PERIOD TIME 1.35795E-02 2.26325E-04 3.77208E-06 1.57170E-07 4.30308E-10
         TOTAL TIME 1.35795E-02 2.26325E-04 3.77208E-06 1.57170E-07 4.30308E-10
1
 -------------------------------------------------------------------------------------
 
 SOLVING FOR HEAD 

 Outer-Iteration  Inner-Iteration  Backtracking  Number of        Incoming       Outgoing      Cutoff     Maximum Head Change      Maximum Head Change
     Number           Count           Flag       Backtracks       Residual       Residual      Residual            Value               Location
        1                             0             0          0.457028E-03     0.457028E-03   -1.00000    
        1                2                                                                                        0.00000                      1           GWF-node number
        1                2                                                                                       0.183698E-03                101           SWF-node number
     1 CALLS TO SPARSE MATRIX SOLVER PACKAGE  IN FLOW TIME STEP      10 STRESS PERIOD       1

 TOTAL OF       1OUTER ITERATIONS
  MAXIMUM CHANGE FOR EACH ITERATION:
   MAX. CHANGE        NODE  MAX. CHANGE        NODE  MAX. CHANGE        NODE  MAX. CHANGE        NODE  MAX. CHANGE        NODE
 ------------------------------------------------------------------------------------------------------------------------------------
    0.0000    ,          1
1
  VOLUMETRIC BUDGET FOR ENTIRE MODEL AT END OF TIME STEP      10 IN STRESS PERIOD       1
  ---------------------------------------------------------------------------------------

     CUMULATIVE VOLUMES      L**3       RATES FOR THIS TIME STEP      L**3/T
     ------------------                 ------------------------

           IN:                                      IN:
           ---                                      ---
             STORAGE =           0.0000               STORAGE =           0.0000
         SWF STORAGE =           0.0000           SWF STORAGE =           0.0000
       CONSTANT HEAD =           0.0000         CONSTANT HEAD =           0.0000
      SWF CONST HEAD =           0.0000        SWF CONST HEAD =           0.0000
            RECHARGE =       6.4387E-03              RECHARGE =           0.4040
                SWBC =           0.0000                  SWBC =           0.0000

            TOTAL IN =       6.4387E-03              TOTAL IN =           0.4040

          OUT:                                     OUT:
          ----                                     ----
             STORAGE =           0.0000               STORAGE =           0.0000
         SWF STORAGE =       5.6869E-03           SWF STORAGE =           0.3723
       CONSTANT HEAD =           0.0000         CONSTANT HEAD =           0.0000
      SWF CONST HEAD =           0.0000        SWF CONST HEAD =           0.0000
            RECHARGE =           0.0000              RECHARGE =           0.0000
                SWBC =           0.0000                  SWBC =           0.0000

           TOTAL OUT =       5.6869E-03             TOTAL OUT =           0.3723

            IN - OUT =       7.5178E-04              IN - OUT =       3.1661E-02

 PERCENT DISCREPANCY =          12.40     PERCENT DISCREPANCY =           8.16






          TIME SUMMARY AT END OF TIME STEP        10 IN STRESS PERIOD         1
                    SECONDS     MINUTES      HOURS       DAYS        YEARS
                    -----------------------------------------------------------
   TIME STEP LENGTH 2.35795E-03 3.92991E-05 6.54986E-07 2.72911E-08 7.47189E-11
 STRESS PERIOD TIME 1.59374E-02 2.65624E-04 4.42706E-06 1.84461E-07 5.05027E-10
         TOTAL TIME 1.59374E-02 2.65624E-04 4.42706E-06 1.84461E-07 5.05027E-10
1
 -------------------------------------------------------------------------------------
 
 SOLVING FOR HEAD 

 Outer-Iteration  Inner-Iteration  Backtracking  Number of        Incoming       Outgoing      Cutoff     Maximum Head Change      Maximum Head Change
     Number           Count           Flag       Backtracks       Residual       Residual      Residual            Value               Location
        1                             0             0          0.558323E-03     0.558323E-03   -1.00000    
        1                2                                                                                        0.00000                      1           GWF-node number
        1                2                                                                                       0.209489E-03                101           SWF-node number
     1 CALLS TO SPARSE MATRIX SOLVER PACKAGE  IN FLOW TIME STEP      11 STRESS PERIOD       1

 TOTAL OF       1OUTER ITERATIONS
  MAXIMUM CHANGE FOR EACH ITERATION:
   MAX. CHANGE        NODE  MAX. CHANGE        NODE  MAX. CHANGE        NODE  MAX. CHANGE        NODE  MAX. CHANGE        NODE
 ------------------------------------------------------------------------------------------------------------------------------------
    0.0000    ,          1
1
  VOLUMETRIC BUDGET FOR ENTIRE MODEL AT END OF TIME STEP      11 IN STRESS PERIOD       1
  ---------------------------------------------------------------------------------------

     CUMULATIVE VOLUMES      L**3       RATES FOR THIS TIME STEP      L**3/T
     ------------------                 ------------------------

           IN:                                      IN:
           ---                                      ---
             STORAGE =           0.0000               STORAGE =           0.0000
         SWF STORAGE =           0.0000           SWF STORAGE =           0.0000
       CONSTANT HEAD =           0.0000         CONSTANT HEAD =           0.0000
      SWF CONST HEAD =           0.0000        SWF CONST HEAD =           0.0000
            RECHARGE =       7.4866E-03              RECHARGE =           0.4040
                SWBC =           0.0000                  SWBC =           0.0000

            TOTAL IN =       7.4866E-03              TOTAL IN =           0.4040

          OUT:                                     OUT:
          ----                                     ----
             STORAGE =           0.0000               STORAGE =           0.0000
         SWF STORAGE =       6.6522E-03           SWF STORAGE =           0.3722
       CONSTANT HEAD =           0.0000         CONSTANT HEAD =           0.0000
      SWF CONST HEAD =           0.0000        SWF CONST HEAD =           0.0000
            RECHARGE =           0.0000              RECHARGE =           0.0000
                SWBC =           0.0000                  SWBC =           0.0000

           TOTAL OUT =       6.6522E-03             TOTAL OUT =           0.3722

            IN - OUT =       8.3436E-04              IN - OUT =       3.1837E-02

 PERCENT DISCREPANCY =          11.80     PERCENT DISCREPANCY =           8.20






          TIME SUMMARY AT END OF TIME STEP        11 IN STRESS PERIOD         1
                    SECONDS     MINUTES      HOURS       DAYS        YEARS
                    -----------------------------------------------------------
   TIME STEP LENGTH 2.59374E-03 4.32291E-05 7.20484E-07 3.00202E-08 8.21908E-11
 STRESS PERIOD TIME 1.85312E-02 3.08853E-04 5.14755E-06 2.14481E-07 5.87217E-10
         TOTAL TIME 1.85312E-02 3.08853E-04 5.14755E-06 2.14481E-07 5.87217E-10
1
 -------------------------------------------------------------------------------------
 
 SOLVING FOR HEAD 

 Outer-Iteration  Inner-Iteration  Backtracking  Number of        Incoming       Outgoing      Cutoff     Maximum Head Change      Maximum Head Change
     Number           Count           Flag       Backtracks       Residual       Residual      Residual            Value               Location
        1                             0             0          0.466510E-03     0.466510E-03   -1.00000    
        1                2                                                                                        0.00000                      1           GWF-node number
        1                2                                                                                       0.197845E-03                101           SWF-node number
     1 CALLS TO SPARSE MATRIX SOLVER PACKAGE  IN FLOW TIME STEP      12 STRESS PERIOD       1

 TOTAL OF       1OUTER ITERATIONS
  MAXIMUM CHANGE FOR EACH ITERATION:
   MAX. CHANGE        NODE  MAX. CHANGE        NODE  MAX. CHANGE        NODE  MAX. CHANGE        NODE  MAX. CHANGE        NODE
 ------------------------------------------------------------------------------------------------------------------------------------
    0.0000    ,          1
1
  VOLUMETRIC BUDGET FOR ENTIRE MODEL AT END OF TIME STEP      12 IN STRESS PERIOD       1
  ---------------------------------------------------------------------------------------

     CUMULATIVE VOLUMES      L**3       RATES FOR THIS TIME STEP      L**3/T
     ------------------                 ------------------------

           IN:                                      IN:
           ---                                      ---
             STORAGE =           0.0000               STORAGE =           0.0000
         SWF STORAGE =           0.0000           SWF STORAGE =           0.0000
       CONSTANT HEAD =           0.0000         CONSTANT HEAD =           0.0000
      SWF CONST HEAD =           0.0000        SWF CONST HEAD =           0.0000
            RECHARGE =       8.6393E-03              RECHARGE =           0.4040
                SWBC =           0.0000                  SWBC =           0.0000

            TOTAL IN =       8.6393E-03              TOTAL IN =           0.4040

          OUT:                                     OUT:
          ----                                     ----
             STORAGE =           0.0000               STORAGE =           0.0000
         SWF STORAGE =       7.7261E-03           SWF STORAGE =           0.3764
       CONSTANT HEAD =           0.0000         CONSTANT HEAD =           0.0000
      SWF CONST HEAD =           0.0000        SWF CONST HEAD =           0.0000
            RECHARGE =           0.0000              RECHARGE =           0.0000
                SWBC =           0.0000                  SWBC =           0.0000

           TOTAL OUT =       7.7261E-03             TOTAL OUT =           0.3764

            IN - OUT =       9.1320E-04              IN - OUT =       2.7633E-02

 PERCENT DISCREPANCY =          11.16     PERCENT DISCREPANCY =           7.08






          TIME SUMMARY AT END OF TIME STEP        12 IN STRESS PERIOD         1
                    SECONDS     MINUTES      HOURS       DAYS        YEARS
                    -----------------------------------------------------------
   TIME STEP LENGTH 2.85312E-03 4.75520E-05 7.92533E-07 3.30222E-08 9.04098E-11
 STRESS PERIOD TIME 2.13843E-02 3.56405E-04 5.94008E-06 2.47503E-07 6.77627E-10
         TOTAL TIME 2.13843E-02 3.56405E-04 5.94008E-06 2.47503E-07 6.77627E-10
1
 -------------------------------------------------------------------------------------
 
 SOLVING FOR HEAD 

 Outer-Iteration  Inner-Iteration  Backtracking  Number of        Incoming       Outgoing      Cutoff     Maximum Head Change      Maximum Head Change
     Number           Count           Flag       Backtracks       Residual       Residual      Residual            Value               Location
        1                             0             0          0.531948E-03     0.531948E-03   -1.00000    
        1                2                                                                                        0.00000                      1           GWF-node number
        1                2                                                                                       0.219100E-03                101           SWF-node number
     1 CALLS TO SPARSE MATRIX SOLVER PACKAGE  IN FLOW TIME STEP      13 STRESS PERIOD       1

 TOTAL OF       1OUTER ITERATIONS
  MAXIMUM CHANGE FOR EACH ITERATION:
   MAX. CHANGE        NODE  MAX. CHANGE        NODE  MAX. CHANGE        NODE  MAX. CHANGE        NODE  MAX. CHANGE        NODE
 ------------------------------------------------------------------------------------------------------------------------------------
    0.0000    ,          1
1
  VOLUMETRIC BUDGET FOR ENTIRE MODEL AT END OF TIME STEP      13 IN STRESS PERIOD       1
  ---------------------------------------------------------------------------------------

     CUMULATIVE VOLUMES      L**3       RATES FOR THIS TIME STEP      L**3/T
     ------------------                 ------------------------

           IN:                                      IN:
           ---                                      ---
             STORAGE =           0.0000               STORAGE =           0.0000
         SWF STORAGE =           0.0000           SWF STORAGE =           0.0000
       CONSTANT HEAD =           0.0000         CONSTANT HEAD =           0.0000
      SWF CONST HEAD =           0.0000        SWF CONST HEAD =           0.0000
            RECHARGE =       9.9072E-03              RECHARGE =           0.4040
                SWBC =           0.0000                  SWBC =           0.0000

            TOTAL IN =       9.9072E-03              TOTAL IN =           0.4040

          OUT:                                     OUT:
          ----                                     ----
             STORAGE =           0.0000               STORAGE =           0.0000
         SWF STORAGE =       8.9090E-03           SWF STORAGE =           0.3769
       CONSTANT HEAD =           0.0000         CONSTANT HEAD =           0.0000
      SWF CONST HEAD =           0.0000        SWF CONST HEAD =           0.0000
            RECHARGE =           0.0000              RECHARGE =           0.0000
                SWBC =           0.0000                  SWBC =           0.0000

           TOTAL OUT =       8.9090E-03             TOTAL OUT =           0.3769

            IN - OUT =       9.9823E-04              IN - OUT =       2.7093E-02

 PERCENT DISCREPANCY =          10.61     PERCENT DISCREPANCY =           6.94






          TIME SUMMARY AT END OF TIME STEP        13 IN STRESS PERIOD         1
                    SECONDS     MINUTES      HOURS       DAYS        YEARS
                    -----------------------------------------------------------
   TIME STEP LENGTH 3.13843E-03 5.23072E-05 8.71786E-07 3.63244E-08 9.94508E-11
 STRESS PERIOD TIME 2.45227E-02 4.08712E-04 6.81187E-06 2.83828E-07 7.77078E-10
         TOTAL TIME 2.45227E-02 4.08712E-04 6.81187E-06 2.83828E-07 7.77078E-10
1
 -------------------------------------------------------------------------------------
 
 SOLVING FOR HEAD 

 Outer-Iteration  Inner-Iteration  Backtracking  Number of        Incoming       Outgoing      Cutoff     Maximum Head Change      Maximum Head Change
     Number           Count           Flag       Backtracks       Residual       Residual      Residual            Value               Location
        1                             0             0          0.470166E-03     0.470166E-03   -1.00000    
        1                2                                                                                        0.00000                      1           GWF-node number
        1                2                                                                                       0.213850E-03                101           SWF-node number
     1 CALLS TO SPARSE MATRIX SOLVER PACKAGE  IN FLOW TIME STEP      14 STRESS PERIOD       1

 TOTAL OF       1OUTER ITERATIONS
  MAXIMUM CHANGE FOR EACH ITERATION:
   MAX. CHANGE        NODE  MAX. CHANGE        NODE  MAX. CHANGE        NODE  MAX. CHANGE        NODE  MAX. CHANGE        NODE
 ------------------------------------------------------------------------------------------------------------------------------------
    0.0000    ,          1
1
  VOLUMETRIC BUDGET FOR ENTIRE MODEL AT END OF TIME STEP      14 IN STRESS PERIOD       1
  ---------------------------------------------------------------------------------------

     CUMULATIVE VOLUMES      L**3       RATES FOR THIS TIME STEP      L**3/T
     ------------------                 ------------------------

           IN:                                      IN:
           ---                                      ---
             STORAGE =           0.0000               STORAGE =           0.0000
         SWF STORAGE =           0.0000           SWF STORAGE =           0.0000
       CONSTANT HEAD =           0.0000         CONSTANT HEAD =           0.0000
      SWF CONST HEAD =           0.0000        SWF CONST HEAD =           0.0000
            RECHARGE =       1.1302E-02              RECHARGE =           0.4040
                SWBC =           0.0000                  SWBC =           0.0000

            TOTAL IN =       1.1302E-02              TOTAL IN =           0.4040

          OUT:                                     OUT:
          ----                                     ----
             STORAGE =           0.0000               STORAGE =           0.0000
         SWF STORAGE =       1.0220E-02           SWF STORAGE =           0.3799
       CONSTANT HEAD =           0.0000         CONSTANT HEAD =           0.0000
      SWF CONST HEAD =           0.0000        SWF CONST HEAD =           0.0000
            RECHARGE =           0.0000              RECHARGE =           0.0000
                SWBC =           0.0000                  SWBC =           0.0000

           TOTAL OUT =       1.0220E-02             TOTAL OUT =           0.3799

            IN - OUT =       1.0815E-03              IN - OUT =       2.4126E-02

 PERCENT DISCREPANCY =          10.05     PERCENT DISCREPANCY =           6.16






          TIME SUMMARY AT END OF TIME STEP        14 IN STRESS PERIOD         1
                    SECONDS     MINUTES      HOURS       DAYS        YEARS
                    -----------------------------------------------------------
   TIME STEP LENGTH 3.45227E-03 5.75379E-05 9.58965E-07 3.99569E-08 1.09396E-10
 STRESS PERIOD TIME 2.79750E-02 4.66250E-04 7.77083E-06 3.23785E-07 8.86474E-10
         TOTAL TIME 2.79750E-02 4.66250E-04 7.77083E-06 3.23785E-07 8.86474E-10
1
 -------------------------------------------------------------------------------------
 
 SOLVING FOR HEAD 

 Outer-Iteration  Inner-Iteration  Backtracking  Number of        Incoming       Outgoing      Cutoff     Maximum Head Change      Maximum Head Change
     Number           Count           Flag       Backtracks       Residual       Residual      Residual            Value               Location
        1                             0             0          0.513937E-03     0.513937E-03   -1.00000    
        1                2                                                                                        0.00000                      1           GWF-node number
        1                2                                                                                       0.232763E-03                101           SWF-node number
     1 CALLS TO SPARSE MATRIX SOLVER PACKAGE  IN FLOW TIME STEP      15 STRESS PERIOD       1

 TOTAL OF       1OUTER ITERATIONS
  MAXIMUM CHANGE FOR EACH ITERATION:
   MAX. CHANGE        NODE  MAX. CHANGE        NODE  MAX. CHANGE        NODE  MAX. CHANGE        NODE  MAX. CHANGE        NODE
 ------------------------------------------------------------------------------------------------------------------------------------
    0.0000    ,          1
1
  VOLUMETRIC BUDGET FOR ENTIRE MODEL AT END OF TIME STEP      15 IN STRESS PERIOD       1
  ---------------------------------------------------------------------------------------

     CUMULATIVE VOLUMES      L**3       RATES FOR THIS TIME STEP      L**3/T
     ------------------                 ------------------------

           IN:                                      IN:
           ---                                      ---
             STORAGE =           0.0000               STORAGE =           0.0000
         SWF STORAGE =           0.0000           SWF STORAGE =           0.0000
       CONSTANT HEAD =           0.0000         CONSTANT HEAD =           0.0000
      SWF CONST HEAD =           0.0000        SWF CONST HEAD =           0.0000
            RECHARGE =       1.2836E-02              RECHARGE =           0.4040
                SWBC =           0.0000                  SWBC =           0.0000

            TOTAL IN =       1.2836E-02              TOTAL IN =           0.4040

          OUT:                                     OUT:
          ----                                     ----
             STORAGE =           0.0000               STORAGE =           0.0000
         SWF STORAGE =       1.1666E-02           SWF STORAGE =           0.3807
       CONSTANT HEAD =           0.0000         CONSTANT HEAD =           0.0000
      SWF CONST HEAD =           0.0000        SWF CONST HEAD =           0.0000
            RECHARGE =           0.0000              RECHARGE =           0.0000
                SWBC =           0.0000                  SWBC =           0.0000

           TOTAL OUT =       1.1666E-02             TOTAL OUT =           0.3807

            IN - OUT =       1.1700E-03              IN - OUT =       2.3291E-02

 PERCENT DISCREPANCY =           9.55     PERCENT DISCREPANCY =           5.94






          TIME SUMMARY AT END OF TIME STEP        15 IN STRESS PERIOD         1
                    SECONDS     MINUTES      HOURS       DAYS        YEARS
                    -----------------------------------------------------------
   TIME STEP LENGTH 3.79750E-03 6.32917E-05 1.05486E-06 4.39525E-08 1.20336E-10
 STRESS PERIOD TIME 3.17725E-02 5.29542E-04 8.82569E-06 3.67737E-07 1.00681E-09
         TOTAL TIME 3.17725E-02 5.29542E-04 8.82569E-06 3.67737E-07 1.00681E-09
1
 -------------------------------------------------------------------------------------
 
 SOLVING FOR HEAD 

 Outer-Iteration  Inner-Iteration  Backtracking  Number of        Incoming       Outgoing      Cutoff     Maximum Head Change      Maximum Head Change
     Number           Count           Flag       Backtracks       Residual       Residual      Residual            Value               Location
        1                             0             0          0.470785E-03     0.470785E-03   -1.00000    
        1                2                                                                                        0.00000                      1           GWF-node number
        1                2                                                                                       0.232102E-03                101           SWF-node number
     1 CALLS TO SPARSE MATRIX SOLVER PACKAGE  IN FLOW TIME STEP      16 STRESS PERIOD       1

 TOTAL OF       1OUTER ITERATIONS
  MAXIMUM CHANGE FOR EACH ITERATION:
   MAX. CHANGE        NODE  MAX. CHANGE        NODE  MAX. CHANGE        NODE  MAX. CHANGE        NODE  MAX. CHANGE        NODE
 ------------------------------------------------------------------------------------------------------------------------------------
    0.0000    ,          1
1
  VOLUMETRIC BUDGET FOR ENTIRE MODEL AT END OF TIME STEP      16 IN STRESS PERIOD       1
  ---------------------------------------------------------------------------------------

     CUMULATIVE VOLUMES      L**3       RATES FOR THIS TIME STEP      L**3/T
     ------------------                 ------------------------

           IN:                                      IN:
           ---                                      ---
             STORAGE =           0.0000               STORAGE =           0.0000
         SWF STORAGE =           0.0000           SWF STORAGE =           0.0000
       CONSTANT HEAD =           0.0000         CONSTANT HEAD =           0.0000
      SWF CONST HEAD =           0.0000        SWF CONST HEAD =           0.0000
            RECHARGE =       1.4524E-02              RECHARGE =           0.4040
                SWBC =           0.0000                  SWBC =           0.0000

            TOTAL IN =       1.4524E-02              TOTAL IN =           0.4040

          OUT:                                     OUT:
          ----                                     ----
             STORAGE =           0.0000               STORAGE =           0.0000
         SWF STORAGE =       1.3266E-02           SWF STORAGE =           0.3829
       CONSTANT HEAD =           0.0000         CONSTANT HEAD =           0.0000
      SWF CONST HEAD =           0.0000        SWF CONST HEAD =           0.0000
            RECHARGE =           0.0000              RECHARGE =           0.0000
                SWBC =           0.0000                  SWBC =           0.0000

           TOTAL OUT =       1.3266E-02             TOTAL OUT =           0.3829

            IN - OUT =       1.2580E-03              IN - OUT =       2.1074E-02

 PERCENT DISCREPANCY =           9.05     PERCENT DISCREPANCY =           5.36






          TIME SUMMARY AT END OF TIME STEP        16 IN STRESS PERIOD         1
                    SECONDS     MINUTES      HOURS       DAYS        YEARS
                    -----------------------------------------------------------
   TIME STEP LENGTH 4.17725E-03 6.96208E-05 1.16035E-06 4.83478E-08 1.32369E-10
 STRESS PERIOD TIME 3.59497E-02 5.99162E-04 9.98604E-06 4.16085E-07 1.13918E-09
         TOTAL TIME 3.59497E-02 5.99162E-04 9.98604E-06 4.16085E-07 1.13918E-09
1
 -------------------------------------------------------------------------------------
 
 SOLVING FOR HEAD 

 Outer-Iteration  Inner-Iteration  Backtracking  Number of        Incoming       Outgoing      Cutoff     Maximum Head Change      Maximum Head Change
     Number           Count           Flag       Backtracks       Residual       Residual      Residual            Value               Location
        1                             0             0          0.500923E-03     0.500923E-03   -1.00000    
        1                2                                                                                        0.00000                      1           GWF-node number
        1                2                                                                                       0.249987E-03                101           SWF-node number
     1 CALLS TO SPARSE MATRIX SOLVER PACKAGE  IN FLOW TIME STEP      17 STRESS PERIOD       1

 TOTAL OF       1OUTER ITERATIONS
  MAXIMUM CHANGE FOR EACH ITERATION:
   MAX. CHANGE        NODE  MAX. CHANGE        NODE  MAX. CHANGE        NODE  MAX. CHANGE        NODE  MAX. CHANGE        NODE
 ------------------------------------------------------------------------------------------------------------------------------------
    0.0000    ,          1
1
  VOLUMETRIC BUDGET FOR ENTIRE MODEL AT END OF TIME STEP      17 IN STRESS PERIOD       1
  ---------------------------------------------------------------------------------------

     CUMULATIVE VOLUMES      L**3       RATES FOR THIS TIME STEP      L**3/T
     ------------------                 ------------------------

           IN:                                      IN:
           ---                                      ---
             STORAGE =           0.0000               STORAGE =           0.0000
         SWF STORAGE =           0.0000           SWF STORAGE =           0.0000
       CONSTANT HEAD =           0.0000         CONSTANT HEAD =           0.0000
      SWF CONST HEAD =           0.0000        SWF CONST HEAD =           0.0000
            RECHARGE =       1.6380E-02              RECHARGE =           0.4040
                SWBC =           0.0000                  SWBC =           0.0000

            TOTAL IN =       1.6380E-02              TOTAL IN =           0.4040

          OUT:                                     OUT:
          ----                                     ----
             STORAGE =           0.0000               STORAGE =           0.0000
         SWF STORAGE =       1.5030E-02           SWF STORAGE =           0.3839
       CONSTANT HEAD =           0.0000         CONSTANT HEAD =           0.0000
      SWF CONST HEAD =           0.0000        SWF CONST HEAD =           0.0000
            RECHARGE =           0.0000              RECHARGE =           0.0000
                SWBC =           0.0000                  SWBC =           0.0000

           TOTAL OUT =       1.5030E-02             TOTAL OUT =           0.3839

            IN - OUT =       1.3505E-03              IN - OUT =       2.0139E-02

 PERCENT DISCREPANCY =           8.60     PERCENT DISCREPANCY =           5.11






          TIME SUMMARY AT END OF TIME STEP        17 IN STRESS PERIOD         1
                    SECONDS     MINUTES      HOURS       DAYS        YEARS
                    -----------------------------------------------------------
   TIME STEP LENGTH 4.59497E-03 7.65829E-05 1.27638E-06 5.31826E-08 1.45606E-10
 STRESS PERIOD TIME 4.05447E-02 6.75745E-04 1.12624E-05 4.69268E-07 1.28478E-09
         TOTAL TIME 4.05447E-02 6.75745E-04 1.12624E-05 4.69268E-07 1.28478E-09
1
 -------------------------------------------------------------------------------------
 
 SOLVING FOR HEAD 

 Outer-Iteration  Inner-Iteration  Backtracking  Number of        Incoming       Outgoing      Cutoff     Maximum Head Change      Maximum Head Change
     Number           Count           Flag       Backtracks       Residual       Residual      Residual            Value               Location
        1                             0             0          0.469818E-03     0.469818E-03   -1.00000    
        1                2                                                                                        0.00000                      1           GWF-node number
        1                2                                                                                       0.252925E-03                101           SWF-node number
     1 CALLS TO SPARSE MATRIX SOLVER PACKAGE  IN FLOW TIME STEP      18 STRESS PERIOD       1

 TOTAL OF       1OUTER ITERATIONS
  MAXIMUM CHANGE FOR EACH ITERATION:
   MAX. CHANGE        NODE  MAX. CHANGE        NODE  MAX. CHANGE        NODE  MAX. CHANGE        NODE  MAX. CHANGE        NODE
 ------------------------------------------------------------------------------------------------------------------------------------
    0.0000    ,          1
1
  VOLUMETRIC BUDGET FOR ENTIRE MODEL AT END OF TIME STEP      18 IN STRESS PERIOD       1
  ---------------------------------------------------------------------------------------

[...]
           ---                                      ---
             STORAGE =           0.0000               STORAGE =           0.0000
         SWF STORAGE =           0.0000           SWF STORAGE =           0.0000
       CONSTANT HEAD =           0.0000         CONSTANT HEAD =           0.0000
      SWF CONST HEAD =           0.0000        SWF CONST HEAD =           0.0000
            RECHARGE =         972.3977              RECHARGE =           0.4040
                SWBC =           0.0000                  SWBC =           0.0000

            TOTAL IN =         972.3977              TOTAL IN =           0.4040

          OUT:                                     OUT:
          ----                                     ----
             STORAGE =           0.0000               STORAGE =           0.0000
         SWF STORAGE =         972.3941           SWF STORAGE =           0.4040
       CONSTANT HEAD =           0.0000         CONSTANT HEAD =           0.0000
      SWF CONST HEAD =           0.0000        SWF CONST HEAD =           0.0000
            RECHARGE =           0.0000              RECHARGE =           0.0000
                SWBC =           0.0000                  SWBC =           0.0000

           TOTAL OUT =         972.3941             TOTAL OUT =           0.4040

            IN - OUT =       3.5711E-03              IN - OUT =      -3.9293E-09

 PERCENT DISCREPANCY =           0.00     PERCENT DISCREPANCY =          -0.00






          TIME SUMMARY AT END OF TIME STEP       561 IN STRESS PERIOD         1
                    SECONDS     MINUTES      HOURS       DAYS        YEARS
                    -----------------------------------------------------------
   TIME STEP LENGTH  5.0000     8.33333E-02 1.38889E-03 5.78704E-05 1.58440E-07
 STRESS PERIOD TIME  2406.9      40.115     0.66859     2.78579E-02 7.62709E-05
         TOTAL TIME  2406.9      40.115     0.66859     2.78579E-02 7.62709E-05
1
 -------------------------------------------------------------------------------------
 
 SOLVING FOR HEAD 

 Outer-Iteration  Inner-Iteration  Backtracking  Number of        Incoming       Outgoing      Cutoff     Maximum Head Change      Maximum Head Change
     Number           Count           Flag       Backtracks       Residual       Residual      Residual            Value               Location
        1                             0             0          0.161600E-02     0.161600E-02   -1.00000    
        1                2                                                                                        0.00000                      1           GWF-node number
        1                2                                                                                       0.200000E-01                  1           SWF-node number
        2                             0             0          0.120108E-18     0.120108E-18   -1.00000    
        2                1                                                                                        0.00000                      1           GWF-node number
        2                1                                                                                       0.538414E-11                 99           SWF-node number
     2 CALLS TO SPARSE MATRIX SOLVER PACKAGE  IN FLOW TIME STEP     562 STRESS PERIOD       1

 TOTAL OF       2OUTER ITERATIONS
  MAXIMUM CHANGE FOR EACH ITERATION:
   MAX. CHANGE        NODE  MAX. CHANGE        NODE  MAX. CHANGE        NODE  MAX. CHANGE        NODE  MAX. CHANGE        NODE
 ------------------------------------------------------------------------------------------------------------------------------------
    0.0000    ,          1   0.0000    ,          1
1
  VOLUMETRIC BUDGET FOR ENTIRE MODEL AT END OF TIME STEP     562 IN STRESS PERIOD       1
  ---------------------------------------------------------------------------------------

     CUMULATIVE VOLUMES      L**3       RATES FOR THIS TIME STEP      L**3/T
     ------------------                 ------------------------

           IN:                                      IN:
           ---                                      ---
             STORAGE =           0.0000               STORAGE =           0.0000
         SWF STORAGE =           0.0000           SWF STORAGE =           0.0000
       CONSTANT HEAD =           0.0000         CONSTANT HEAD =           0.0000
      SWF CONST HEAD =           0.0000        SWF CONST HEAD =           0.0000
            RECHARGE =         974.4177              RECHARGE =           0.4040
                SWBC =           0.0000                  SWBC =           0.0000

            TOTAL IN =         974.4177              TOTAL IN =           0.4040

          OUT:                                     OUT:
          ----                                     ----
             STORAGE =           0.0000               STORAGE =           0.0000
         SWF STORAGE =         974.4141           SWF STORAGE =           0.4040
       CONSTANT HEAD =           0.0000         CONSTANT HEAD =           0.0000
      SWF CONST HEAD =           0.0000        SWF CONST HEAD =           0.0000
            RECHARGE =           0.0000              RECHARGE =           0.0000
                SWBC =           0.0000                  SWBC =           0.0000

           TOTAL OUT =         974.4141             TOTAL OUT =           0.4040

            IN - OUT =       3.5710E-03              IN - OUT =      -4.8178E-09

 PERCENT DISCREPANCY =           0.00     PERCENT DISCREPANCY =          -0.00






          TIME SUMMARY AT END OF TIME STEP       562 IN STRESS PERIOD         1
                    SECONDS     MINUTES      HOURS       DAYS        YEARS
                    -----------------------------------------------------------
   TIME STEP LENGTH  5.0000     8.33333E-02 1.38889E-03 5.78704E-05 1.58440E-07
 STRESS PERIOD TIME  2411.9      40.199     0.66998     2.79158E-02 7.64293E-05
         TOTAL TIME  2411.9      40.199     0.66998     2.79158E-02 7.64293E-05
1
 -------------------------------------------------------------------------------------
 
 SOLVING FOR HEAD 

 Outer-Iteration  Inner-Iteration  Backtracking  Number of        Incoming       Outgoing      Cutoff     Maximum Head Change      Maximum Head Change
     Number           Count           Flag       Backtracks       Residual       Residual      Residual            Value               Location
        1                             0             0          0.161600E-02     0.161600E-02   -1.00000    
        1                2                                                                                        0.00000                      1           GWF-node number
        1                2                                                                                       0.200000E-01                  1           SWF-node number
        2                             0             0          0.893941E-19     0.893941E-19   -1.00000    
        2                1                                                                                        0.00000                      1           GWF-node number
        2                1                                                                                       0.918554E-11                  2           SWF-node number
     2 CALLS TO SPARSE MATRIX SOLVER PACKAGE  IN FLOW TIME STEP     563 STRESS PERIOD       1

 TOTAL OF       2OUTER ITERATIONS
  MAXIMUM CHANGE FOR EACH ITERATION:
   MAX. CHANGE        NODE  MAX. CHANGE        NODE  MAX. CHANGE        NODE  MAX. CHANGE        NODE  MAX. CHANGE        NODE
 ------------------------------------------------------------------------------------------------------------------------------------
    0.0000    ,          1   0.0000    ,          1
1
  VOLUMETRIC BUDGET FOR ENTIRE MODEL AT END OF TIME STEP     563 IN STRESS PERIOD       1
  ---------------------------------------------------------------------------------------

     CUMULATIVE VOLUMES      L**3       RATES FOR THIS TIME STEP      L**3/T
     ------------------                 ------------------------

           IN:                                      IN:
           ---                                      ---
             STORAGE =           0.0000               STORAGE =           0.0000
         SWF STORAGE =           0.0000           SWF STORAGE =           0.0000
       CONSTANT HEAD =           0.0000         CONSTANT HEAD =           0.0000
      SWF CONST HEAD =           0.0000        SWF CONST HEAD =           0.0000
            RECHARGE =         976.4377              RECHARGE =           0.4040
                SWBC =           0.0000                  SWBC =           0.0000

            TOTAL IN =         976.4377              TOTAL IN =           0.4040

          OUT:                                     OUT:
          ----                                     ----
             STORAGE =           0.0000               STORAGE =           0.0000
         SWF STORAGE =         976.4341           SWF STORAGE =           0.4040
       CONSTANT HEAD =           0.0000         CONSTANT HEAD =           0.0000
      SWF CONST HEAD =           0.0000        SWF CONST HEAD =           0.0000
            RECHARGE =           0.0000              RECHARGE =           0.0000
                SWBC =           0.0000                  SWBC =           0.0000

           TOTAL OUT =         976.4341             TOTAL OUT =           0.4040

            IN - OUT =       3.5710E-03              IN - OUT =      -4.4830E-09

 PERCENT DISCREPANCY =           0.00     PERCENT DISCREPANCY =          -0.00






          TIME SUMMARY AT END OF TIME STEP       563 IN STRESS PERIOD         1
                    SECONDS     MINUTES      HOURS       DAYS        YEARS
                    -----------------------------------------------------------
   TIME STEP LENGTH  5.0000     8.33333E-02 1.38889E-03 5.78704E-05 1.58440E-07
 STRESS PERIOD TIME  2416.9      40.282     0.67137     2.79737E-02 7.65877E-05
         TOTAL TIME  2416.9      40.282     0.67137     2.79737E-02 7.65877E-05
1
 -------------------------------------------------------------------------------------
 
 SOLVING FOR HEAD 

 Outer-Iteration  Inner-Iteration  Backtracking  Number of        Incoming       Outgoing      Cutoff     Maximum Head Change      Maximum Head Change
     Number           Count           Flag       Backtracks       Residual       Residual      Residual            Value               Location
        1                             0             0          0.161600E-02     0.161600E-02   -1.00000    
        1                2                                                                                        0.00000                      1           GWF-node number
        1                2                                                                                       0.135522E-01                  1           SWF-node number
        2                             0             0          0.102464E-18     0.102464E-18   -1.00000    
        2                1                                                                                        0.00000                      1           GWF-node number
        2                1                                                                                      -0.120206E-10                 87           SWF-node number
     2 CALLS TO SPARSE MATRIX SOLVER PACKAGE  IN FLOW TIME STEP     564 STRESS PERIOD       1

 TOTAL OF       2OUTER ITERATIONS
  MAXIMUM CHANGE FOR EACH ITERATION:
   MAX. CHANGE        NODE  MAX. CHANGE        NODE  MAX. CHANGE        NODE  MAX. CHANGE        NODE  MAX. CHANGE        NODE
 ------------------------------------------------------------------------------------------------------------------------------------
    0.0000    ,          1   0.0000    ,          1
 UBUDSVU SAVING "         STORAGE" ON UNIT  50 AT TIME STEP    564, STRESS PERIOD      1
 UBUDSV SAVING "     SWF STORAGE" ON UNIT 144 AT TIME STEP    564, STRESS PERIOD       1
 UBUDSVU SAVING "   CONSTANT HEAD" ON UNIT  50 AT TIME STEP    564, STRESS PERIOD      1
 UBUDSVU SAVING "   FLOW JA FACE " ON UNIT  50 AT TIME STEP    564, STRESS PERIOD      1
 UBUDSVU SAVING "             SWF" ON UNIT  50 AT TIME STEP    564, STRESS PERIOD      1
 UBUDSVU SAVING "  SWF CONST HEAD" ON UNIT 144 AT TIME STEP    564, STRESS PERIOD      1
 UBUDSVU SAVING "   FLOW SWF FACE" ON UNIT 144 AT TIME STEP    564, STRESS PERIOD      1
 UBUDSVU SAVING "             GWF" ON UNIT 144 AT TIME STEP    564, STRESS PERIOD      1
 UBUDSVU SAVING "        RECHARGE" ON UNIT  50 AT TIME STEP    564, STRESS PERIOD      1
1
             HEADU IN LAYER       1 AT END OF TIME STEP     564 IN STRESS PERIOD       1 STRESS TIME    2420.31     TOTAL TIME    2420.31    
  -----------------------------------------------------------------------------------------------------------------------------------------
        1..    999.0       999.0       999.0       999.0       999.0       999.0       999.0       999.0       999.0       999.0    
       11..    999.0       999.0       999.0       999.0       999.0       999.0       999.0       999.0       999.0       999.0    
       21..    999.0       999.0       999.0       999.0       999.0       999.0       999.0       999.0       999.0       999.0    
       31..    999.0       999.0       999.0       999.0       999.0       999.0       999.0       999.0       999.0       999.0    
       41..    999.0       999.0       999.0       999.0       999.0       999.0       999.0       999.0       999.0       999.0    
       51..    999.0       999.0       999.0       999.0       999.0       999.0       999.0       999.0       999.0       999.0    
       61..    999.0       999.0       999.0       999.0       999.0       999.0       999.0       999.0       999.0       999.0    
       71..    999.0       999.0       999.0       999.0       999.0       999.0       999.0       999.0       999.0       999.0    
       81..    999.0       999.0       999.0       999.0       999.0       999.0       999.0       999.0       999.0       999.0    
       91..    999.0       999.0       999.0       999.0       999.0       999.0       999.0       999.0       999.0       999.0    
      101..    999.0    

 HEAD WILL BE SAVED ON UNIT       30 AT END OF TIME STEP      564, STRESS PERIOD        1

 DRAWDOWN WILL BE SAVED ON UNIT   31 AT END OF TIME STEP 564, STRESS PERIOD    1
1
         SWF HEADS IN LAYER   1 AT END OF TIME STEP  564 IN STRESS PERIOD    1
  ---------------------------------------------------------------------------

            1           2           3           4           5           6           7           8           9          10
           11          12          13          14          15          16          17          18          19          20
           21          22          23          24          25          26          27          28          29          30
           31          32          33          34          35          36          37          38          39          40
           41          42          43          44          45          46          47          48          49          50
           51          52          53          54          55          56          57          58          59          60
           61          62          63          64          65          66          67          68          69          70
           71          72          73          74          75          76          77          78          79          80
           81          82          83          84          85          86          87          88          89          90
           91          92          93          94          95          96          97          98          99         100
          101
 ........................................................................................................................
   1    11.23       11.23       11.23       11.23       11.23       11.23       11.23       11.23       11.23       11.23    
        11.23       11.23       11.23       11.23       11.23       11.23       11.23       11.23       11.23       11.23    
        11.23       11.23       11.23       11.23       11.23       11.23       11.23       11.23       11.23       11.23    
        11.23       11.23       11.23       11.23       11.23       11.23       11.23       11.23       11.23       11.23    
        11.23       11.23       11.23       11.23       11.23       11.23       11.23       11.23       11.23       11.23    
        11.23       11.23       11.23       11.23       11.23       11.23       11.23       11.23       11.23       11.23    
        11.23       11.23       11.23       11.23       11.23       11.23       11.23       11.23       11.23       11.23    
        11.23       11.23       11.23       11.23       11.23       11.23       11.23       11.23       11.23       11.23    
        11.23       11.23       11.23       11.23       11.23       11.23       11.23       11.23       11.23       11.23    
        11.23       11.23       11.23       11.23       11.23       11.23       11.23       11.23       11.23       11.23    
        11.23    

 SWF HEAD WILL BE SAVED ON UNIT  145 AT END OF TIME STEP 564, STRESS PERIOD    1

 SWF DRAWDOWN WILL BE SAVED ON UNIT  146 AT END OF TIME STEP 564, STRESS PERIOD    1
1
  VOLUMETRIC BUDGET FOR ENTIRE MODEL AT END OF TIME STEP     564 IN STRESS PERIOD       1
  ---------------------------------------------------------------------------------------

     CUMULATIVE VOLUMES      L**3       RATES FOR THIS TIME STEP      L**3/T
     ------------------                 ------------------------

           IN:                                      IN:
           ---                                      ---
             STORAGE =           0.0000               STORAGE =           0.0000
         SWF STORAGE =           0.0000           SWF STORAGE =           0.0000
       CONSTANT HEAD =           0.0000         CONSTANT HEAD =           0.0000
      SWF CONST HEAD =           0.0000        SWF CONST HEAD =           0.0000
            RECHARGE =         977.8065              RECHARGE =           0.4040
                SWBC =           0.0000                  SWBC =           0.0000

            TOTAL IN =         977.8065              TOTAL IN =           0.4040

          OUT:                                     OUT:
          ----                                     ----
             STORAGE =           0.0000               STORAGE =           0.0000
         SWF STORAGE =         977.8029           SWF STORAGE =           0.4040
       CONSTANT HEAD =           0.0000         CONSTANT HEAD =           0.0000
      SWF CONST HEAD =           0.0000        SWF CONST HEAD =           0.0000
            RECHARGE =           0.0000              RECHARGE =           0.0000
                SWBC =           0.0000                  SWBC =           0.0000

           TOTAL OUT =         977.8029             TOTAL OUT =           0.4040

            IN - OUT =       3.5710E-03              IN - OUT =      -2.9347E-09

 PERCENT DISCREPANCY =           0.00     PERCENT DISCREPANCY =          -0.00






          TIME SUMMARY AT END OF TIME STEP       564 IN STRESS PERIOD         1
                    SECONDS     MINUTES      HOURS       DAYS        YEARS
                    -----------------------------------------------------------
   TIME STEP LENGTH  3.3881     5.64675E-02 9.41125E-04 3.92136E-05 1.07361E-07
 STRESS PERIOD TIME  2420.3      40.339     0.67231     2.80129E-02 7.66951E-05
         TOTAL TIME  2420.3      40.339     0.67231     2.80129E-02 7.66951E-05
1

 Run end date and time (yyyy/mm/dd hh:mm:ss): 2024/03/18 10:31:49
 Elapsed run time:  0.614 Seconds

